version 3
run canvas-0-20240421-10:46:28-43062
attr configname canvas
attr datetime 20240421-10:46:28
attr datetimef 20240421-104628
attr experiment canvas
attr inifile omnetpp.ini
attr iterationvars ""
attr iterationvarsd ""
attr iterationvarsf ""
attr measurement ""
attr network Scenario
attr processid 43062
attr repetition 0
attr replication #0
attr resultdir results
attr runnumber 0
attr seedset 0
config image-path ../../images:../../../inet4.4/images:../../../veins-veins-5.2/images
config extends plain
config description "Enable enhanced 2D visualization"
config *.visualizer.*.obstacleLossVisualizer.displayIntersections true
config *.visualizer.*.obstacleLossVisualizer.displayFaceNormalVectors true
config *.visualizer.*.obstacleLossVisualizer.intersectionLineColor "\"yellow\""
config *.visualizer.*.mediumVisualizer.signalPropagationAnimationSpeed 500/3e8
config *.visualizer.*.mediumVisualizer.signalTransmissionAnimationSpeed 50000/3e8
config *.visualizer.*.mediumVisualizer.displaySignals true
config *.visualizer.canvasVisualizer.mediumVisualizer.displaySignalDepartures false
config *.visualizer.canvasVisualizer.mediumVisualizer.displaySignalArrivals false
config *.visualizer.*.physicalLinkVisualizer.displayLinks true
config *.visualizer.osgVisualizer.typename ""
config network Scenario
config sim-time-limit 60s
config debug-on-errors true
config cmdenv-express-mode true
config image-path ../../../../images
config *.node[*].numApps 1
config *.node[*].app[0].typename org.car2x.veins.subprojects.veins_inet.VeinsInetSampleApplication
config *.node[*].app[0].interface "\"wlan0\""
config *.node[*].wlan[0].opMode "\"p\""
config *.node[*].wlan[0].radio.typename Ieee80211DimensionalRadio
config *.node[*].wlan[0].radio.bandName "\"5.9 GHz\""
config *.node[*].wlan[0].radio.channelNumber 3
config *.node[*].wlan[0].radio.transmitter.power 20mW
config *.node[*].wlan[0].radio.bandwidth "10 MHz"
config *.node[*].wlan[*].radio.antenna.mobility.typename AttachedMobility
config *.node[*].wlan[*].radio.antenna.mobility.mobilityModule "\"^.^.^.^.mobility\""
config *.node[*].wlan[*].radio.antenna.mobility.offsetX -2.5m
config *.node[*].wlan[*].radio.antenna.mobility.offsetZ 1.5m
config *.node[*].wlan[*].radio.antenna.mobility.constraintAreaMinX 0m
config *.node[*].wlan[*].radio.antenna.mobility.constraintAreaMaxX 0m
config *.node[*].wlan[*].radio.antenna.mobility.constraintAreaMinY 0m
config *.node[*].wlan[*].radio.antenna.mobility.constraintAreaMaxY 0m
config *.node[*].wlan[*].radio.antenna.mobility.constraintAreaMinZ 0m
config *.node[*].wlan[*].radio.antenna.mobility.constraintAreaMaxZ 0m
config *.node[*].ipv4.configurator.typename HostAutoConfigurator
config *.node[*].ipv4.configurator.interfaces "\"wlan0\""
config *.node[*].ipv4.configurator.mcastGroups "\"224.0.0.1\""
config *.node[*].mobility.typename VeinsInetMobility
config *.manager.updateInterval 0.1s
config *.manager.host "\"localhost\""
config *.manager.port 9999
config *.manager.autoShutdown true
config *.manager.launchConfig "xmldoc(\"square.launchd.xml\")"
config *.manager.moduleType "\"org.car2x.veins.subprojects.veins_inet.VeinsInetCar\""
config *.physicalEnvironment.config "xmldoc(\"obstacles.xml\")"
config *.radioMedium.obstacleLoss.typename IdealObstacleLoss
config **.vector-recording true

vector 0 Scenario.node[0].wlan[0].mac.dcf frameSequenceActive:vector ETV
attr autoWarmupFilter false
attr interpolationmode sample-hold
attr recordingmode vector
attr source warmup(count(frameSequenceStarted)-count(frameSequenceFinished))
attr title "frame sequence active"
vector 1 Scenario.node[0].wlan[0].mac.dcf.channelAccess.inProgressFrames queueLength:vector ETV
attr autoWarmupFilter false
attr interpolationmode sample-hold
attr recordingmode vector
attr source "warmup(count(packetEnqueued) - count(packetDequeued))"
attr title "queue length"
vector 2 Scenario.node[0].wlan[0].mac.dcf.channelAccess.contention backoffActive:vector ETV
attr autoWarmupFilter false
attr interpolationmode sample-hold
attr recordingmode vector
attr source warmup(count(backoffStarted)-count(backoffStopped))
attr title "backoff active"
vector 3 Scenario.node[0].udp passedUpPk:vector(count) ETV
attr interpolationmode none
attr recordingmode vector(count)
attr source packetSentToUpper
attr title "packets passed up, count"
vector 4 Scenario.node[0].udp droppedPkWrongPort:vector(count) ETV
attr interpolationmode none
attr recordingmode vector(count)
attr source packetDropReasonIsNoPortFound(packetDropped)
attr title "packets dropped (wrong port), count"
vector 5 Scenario.node[0].udp droppedPkBadChecksum:vector(count) ETV
attr interpolationmode none
attr recordingmode vector(count)
attr source packetDropReasonIsIncorrectlyReceived(packetDropped)
attr title "packets dropped (checksum error), count"
vector 6 Scenario.node[0].wlan[0].radio radioMode:vector ETV
attr interpolationmode sample-hold
attr recordingmode vector
attr source radioModeChanged
attr title "Radio mode"
vector 7 Scenario.node[0].wlan[0].radio radioChannel:vector ETV
attr interpolationmode sample-hold
attr recordingmode vector
attr source radioChannelChanged
attr title "Radio channel"
vector 8 Scenario.node[0].wlan[0].radio receptionState:vector ETV
attr interpolationmode sample-hold
attr recordingmode vector
attr source receptionStateChanged
attr title "Radio reception state"
vector 9 Scenario.node[0].wlan[0].mac.dcf.channelAccess.contention stateChanged:vector ETV
attr enum IDLE,DEFER,IFS_AND_BACKOFF
attr interpolationmode none
attr recordingmode vector
attr title "contention state changed"
attr type enum
vector 10 Scenario.node[0].wlan[0].mac.dcf.recoveryProcedure contentionWindowChanged:vector ETV
attr interpolationmode sample-hold
attr recordingmode vector
attr title "contention window"
vector 11 Scenario.node[1].wlan[0].mac.dcf frameSequenceActive:vector ETV
attr autoWarmupFilter false
attr interpolationmode sample-hold
attr recordingmode vector
attr source warmup(count(frameSequenceStarted)-count(frameSequenceFinished))
attr title "frame sequence active"
vector 12 Scenario.node[1].wlan[0].mac.dcf.channelAccess.inProgressFrames queueLength:vector ETV
attr autoWarmupFilter false
attr interpolationmode sample-hold
attr recordingmode vector
attr source "warmup(count(packetEnqueued) - count(packetDequeued))"
attr title "queue length"
vector 13 Scenario.node[1].wlan[0].mac.dcf.channelAccess.contention backoffActive:vector ETV
attr autoWarmupFilter false
attr interpolationmode sample-hold
attr recordingmode vector
attr source warmup(count(backoffStarted)-count(backoffStopped))
attr title "backoff active"
vector 14 Scenario.node[1].udp passedUpPk:vector(count) ETV
attr interpolationmode none
attr recordingmode vector(count)
attr source packetSentToUpper
attr title "packets passed up, count"
vector 15 Scenario.node[1].udp droppedPkWrongPort:vector(count) ETV
attr interpolationmode none
attr recordingmode vector(count)
attr source packetDropReasonIsNoPortFound(packetDropped)
attr title "packets dropped (wrong port), count"
vector 16 Scenario.node[1].udp droppedPkBadChecksum:vector(count) ETV
attr interpolationmode none
attr recordingmode vector(count)
attr source packetDropReasonIsIncorrectlyReceived(packetDropped)
attr title "packets dropped (checksum error), count"
vector 17 Scenario.node[1].wlan[0].radio radioMode:vector ETV
attr interpolationmode sample-hold
attr recordingmode vector
attr source radioModeChanged
attr title "Radio mode"
vector 18 Scenario.node[1].wlan[0].radio radioChannel:vector ETV
attr interpolationmode sample-hold
attr recordingmode vector
attr source radioChannelChanged
attr title "Radio channel"
vector 19 Scenario.node[1].wlan[0].radio receptionState:vector ETV
attr interpolationmode sample-hold
attr recordingmode vector
attr source receptionStateChanged
attr title "Radio reception state"
vector 20 Scenario.node[1].wlan[0].mac.dcf.channelAccess.contention stateChanged:vector ETV
attr enum IDLE,DEFER,IFS_AND_BACKOFF
attr interpolationmode none
attr recordingmode vector
attr title "contention state changed"
attr type enum
vector 21 Scenario.node[1].wlan[0].mac.dcf.recoveryProcedure contentionWindowChanged:vector ETV
attr interpolationmode sample-hold
attr recordingmode vector
attr title "contention window"
vector 22 Scenario.node[2].wlan[0].mac.dcf frameSequenceActive:vector ETV
attr autoWarmupFilter false
attr interpolationmode sample-hold
attr recordingmode vector
attr source warmup(count(frameSequenceStarted)-count(frameSequenceFinished))
attr title "frame sequence active"
vector 23 Scenario.node[2].wlan[0].mac.dcf.channelAccess.inProgressFrames queueLength:vector ETV
attr autoWarmupFilter false
attr interpolationmode sample-hold
attr recordingmode vector
attr source "warmup(count(packetEnqueued) - count(packetDequeued))"
attr title "queue length"
vector 24 Scenario.node[2].wlan[0].mac.dcf.channelAccess.contention backoffActive:vector ETV
attr autoWarmupFilter false
attr interpolationmode sample-hold
attr recordingmode vector
attr source warmup(count(backoffStarted)-count(backoffStopped))
attr title "backoff active"
vector 25 Scenario.node[2].udp passedUpPk:vector(count) ETV
attr interpolationmode none
attr recordingmode vector(count)
attr source packetSentToUpper
attr title "packets passed up, count"
vector 26 Scenario.node[2].udp droppedPkWrongPort:vector(count) ETV
attr interpolationmode none
attr recordingmode vector(count)
attr source packetDropReasonIsNoPortFound(packetDropped)
attr title "packets dropped (wrong port), count"
vector 27 Scenario.node[2].udp droppedPkBadChecksum:vector(count) ETV
attr interpolationmode none
attr recordingmode vector(count)
attr source packetDropReasonIsIncorrectlyReceived(packetDropped)
attr title "packets dropped (checksum error), count"
vector 28 Scenario.node[2].wlan[0].radio radioMode:vector ETV
attr interpolationmode sample-hold
attr recordingmode vector
attr source radioModeChanged
attr title "Radio mode"
vector 29 Scenario.node[2].wlan[0].radio radioChannel:vector ETV
attr interpolationmode sample-hold
attr recordingmode vector
attr source radioChannelChanged
attr title "Radio channel"
vector 30 Scenario.node[2].wlan[0].radio receptionState:vector ETV
attr interpolationmode sample-hold
attr recordingmode vector
attr source receptionStateChanged
attr title "Radio reception state"
vector 31 Scenario.node[2].wlan[0].mac.dcf.channelAccess.contention stateChanged:vector ETV
attr enum IDLE,DEFER,IFS_AND_BACKOFF
attr interpolationmode none
attr recordingmode vector
attr title "contention state changed"
attr type enum
vector 32 Scenario.node[2].wlan[0].mac.dcf.recoveryProcedure contentionWindowChanged:vector ETV
attr interpolationmode sample-hold
attr recordingmode vector
attr title "contention window"
vector 33 Scenario.node[3].wlan[0].mac.dcf frameSequenceActive:vector ETV
attr autoWarmupFilter false
attr interpolationmode sample-hold
attr recordingmode vector
attr source warmup(count(frameSequenceStarted)-count(frameSequenceFinished))
attr title "frame sequence active"
vector 34 Scenario.node[3].wlan[0].mac.dcf.channelAccess.inProgressFrames queueLength:vector ETV
attr autoWarmupFilter false
attr interpolationmode sample-hold
attr recordingmode vector
attr source "warmup(count(packetEnqueued) - count(packetDequeued))"
attr title "queue length"
vector 35 Scenario.node[3].wlan[0].mac.dcf.channelAccess.contention backoffActive:vector ETV
attr autoWarmupFilter false
attr interpolationmode sample-hold
attr recordingmode vector
attr source warmup(count(backoffStarted)-count(backoffStopped))
attr title "backoff active"
vector 36 Scenario.node[3].udp passedUpPk:vector(count) ETV
attr interpolationmode none
attr recordingmode vector(count)
attr source packetSentToUpper
attr title "packets passed up, count"
vector 37 Scenario.node[3].udp droppedPkWrongPort:vector(count) ETV
attr interpolationmode none
attr recordingmode vector(count)
attr source packetDropReasonIsNoPortFound(packetDropped)
attr title "packets dropped (wrong port), count"
vector 38 Scenario.node[3].udp droppedPkBadChecksum:vector(count) ETV
attr interpolationmode none
attr recordingmode vector(count)
attr source packetDropReasonIsIncorrectlyReceived(packetDropped)
attr title "packets dropped (checksum error), count"
vector 39 Scenario.node[3].wlan[0].radio radioMode:vector ETV
attr interpolationmode sample-hold
attr recordingmode vector
attr source radioModeChanged
attr title "Radio mode"
vector 40 Scenario.node[3].wlan[0].radio radioChannel:vector ETV
attr interpolationmode sample-hold
attr recordingmode vector
attr source radioChannelChanged
attr title "Radio channel"
vector 41 Scenario.node[3].wlan[0].radio receptionState:vector ETV
attr interpolationmode sample-hold
attr recordingmode vector
attr source receptionStateChanged
attr title "Radio reception state"
vector 42 Scenario.node[3].wlan[0].mac.dcf.channelAccess.contention stateChanged:vector ETV
attr enum IDLE,DEFER,IFS_AND_BACKOFF
attr interpolationmode none
attr recordingmode vector
attr title "contention state changed"
attr type enum
vector 43 Scenario.node[3].wlan[0].mac.dcf.recoveryProcedure contentionWindowChanged:vector ETV
attr interpolationmode sample-hold
attr recordingmode vector
attr title "contention window"
vector 44 Scenario.node[0].app[0] packetSent:vector(packetBytes) ETV
attr interpolationmode none
attr recordingmode vector(packetBytes)
attr source packetSent
attr title "packets sent, packetBytes"
vector 45 Scenario.node[0].udp packetSent:vector(packetBytes) ETV
attr interpolationmode none
attr recordingmode vector(packetBytes)
attr source packetSent
attr title "packets sent, packetBytes"
vector 46 Scenario.node[0].lo[0].lo rcvdPkFromHl:vector(packetBytes) ETV
attr interpolationmode none
attr recordingmode vector(packetBytes)
attr source packetReceivedFromUpper
attr title "packets received from higher layer, packetBytes"
vector 47 Scenario.node[0].lo[0].lo passedUpPk:vector(packetBytes) ETV
attr interpolationmode none
attr recordingmode vector(packetBytes)
attr source packetSentToUpper
attr title "packets passed to higher layer, packetBytes"
vector 48 Scenario.node[0].wlan[0].mac packetReceivedFromUpper:vector(packetBytes) ETV
attr interpolationmode none
attr recordingmode vector(packetBytes)
attr title "packets received from upper layer, packetBytes"
vector 49 Scenario.node[0].wlan[0].mac.dcf.channelAccess.pendingQueue incomingPacketLengths:vector ETV
attr interpolationmode none
attr recordingmode vector
attr source packetLength(packetPushStarted)
attr title "incoming packet lengths"
attr unit b
vector 50 Scenario.node[0].wlan[0].mac.dcf.channelAccess.pendingQueue incomingDataRate:vector ETV
attr interpolationmode linear
attr recordingmode vector
attr source throughput(packetPushStarted)
attr title "incoming datarate"
attr unit bps
vector 51 Scenario.node[0].wlan[0].mac.dcf.channelAccess.pendingQueue queueLength:vector ETV
attr autoWarmupFilter false
attr interpolationmode sample-hold
attr recordingmode vector
attr source "warmup(atomic(constant0(packetPushEnded) + count(packetPushStarted) - count(packetPulled) - count(packetRemoved) - count(packetDropped)))"
attr title "queue length"
attr unit pk
vector 52 Scenario.node[0].wlan[0].mac.dcf.channelAccess.pendingQueue queueBitLength:vector ETV
attr autoWarmupFilter false
attr interpolationmode sample-hold
attr recordingmode vector
attr source "warmup(atomic(constant0(packetPushEnded) + sum(packetLength(packetPushStarted)) - sum(packetLength(packetPulled)) - sum(packetLength(packetRemoved)) - sum(packetLength(packetDropped))))"
attr title "queue bit length"
attr unit b
vector 53 Scenario.node[0].wlan[0].mac.dcf.channelAccess.contention backoffPeriodGenerated:vector ETV
attr interpolationmode none
attr recordingmode vector
attr title "backoff periods"
vector 54 Scenario.node[0].udp packetReceived:vector(packetBytes) ETV
attr interpolationmode none
attr recordingmode vector(packetBytes)
attr source packetReceived
attr title "packets received, packetBytes"
vector 55 Scenario.node[0].app[0] packetReceived:vector(packetBytes) ETV
attr interpolationmode none
attr recordingmode vector(packetBytes)
attr source packetReceived
attr title "packets received, packetBytes"
vector 56 Scenario.node[0].app[0] throughput:vector ETV
attr recordingmode vector
attr source throughput(packetReceived)
attr title throughput
attr unit bps
vector 57 Scenario.node[0].app[0] rcvdPkLifetime:vector ETV
attr interpolationmode none
attr recordingmode vector
attr source dataAge(packetReceived)
attr title "received packet lifetime"
attr unit s
vector 58 Scenario.node[0].wlan[0].mac.dcf.channelAccess.pendingQueue queueingTime:vector ETV
attr interpolationmode none
attr recordingmode vector
attr source queueingTime(packetPulled)
attr title "queueing times"
attr unit s
vector 59 Scenario.node[0].wlan[0].mac.dcf.channelAccess.pendingQueue outgoingPacketLengths:vector ETV
attr interpolationmode none
attr recordingmode vector
attr source packetLength(packetPulled)
attr title "outgoing packet lengths"
attr unit b
vector 60 Scenario.node[0].wlan[0].mac.dcf.channelAccess.pendingQueue outgoingDataRate:vector ETV
attr interpolationmode linear
attr recordingmode vector
attr source throughput(packetPulled)
attr title "outgoing datarate"
attr unit bps
vector 61 Scenario.node[0].wlan[0].mac.dcf datarateSelected:vector ETV
attr interpolationmode none
attr recordingmode vector
attr title "datarates selected"
vector 62 Scenario.node[0].wlan[0].mac packetSentToLower:vector(packetBytes) ETV
attr interpolationmode none
attr recordingmode vector(packetBytes)
attr title "packets sent to lower layer, packetBytes"
vector 63 Scenario.node[0].wlan[0].radio transmissionState:vector ETV
attr interpolationmode sample-hold
attr recordingmode vector
attr source transmissionStateChanged
attr title "Radio transmission state"
vector 64 Scenario.node[0].wlan[0].mac.dcf packetSentToPeer:vector(packetBytes) ETV
attr interpolationmode none
attr recordingmode vector(packetBytes)
attr title "packets sent, packetBytes"
vector 65 Scenario.node[0].wlan[0].mac.dcf packetSentToPeerMulticast:vector(packetBytes) ETV
attr interpolationmode none
attr recordingmode vector(packetBytes)
attr source ieee80211Multicast(packetSentToPeer)
attr title "packets sent: multicast, packetBytes"
vector 66 Scenario.node[0].wlan[0].mac.dcf packetSentToPeerWithoutRetry:vector(packetBytes) ETV
attr interpolationmode none
attr recordingmode vector(packetBytes)
attr source ieee80211NotRetry(packetSentToPeer)
attr title "packets sent: without retry, packetBytes"
vector 67 Scenario.node[0].wlan[0].mac.dcf.channelAccess.inProgressFrames queueingTime:vector ETV
attr interpolationmode none
attr recordingmode vector
attr source queueingTime(packetDequeued)
attr title "queueing times"
vector 68 Scenario.node[1].wlan[0].mac packetReceivedFromLower:vector(packetBytes) ETV
attr interpolationmode none
attr recordingmode vector(packetBytes)
attr title "packets received from lower layer, packetBytes"
vector 69 Scenario.node[1].wlan[0].mac.dcf packetReceivedFromPeer:vector(packetBytes) ETV
attr interpolationmode none
attr recordingmode vector(packetBytes)
attr title "packets received, packetBytes"
vector 70 Scenario.node[1].wlan[0].mac.dcf packetReceivedFromPeerMulticast:vector(packetBytes) ETV
attr interpolationmode none
attr recordingmode vector(packetBytes)
attr source ieee80211Multicast(packetReceivedFromPeer)
attr title "packets received: multicast, packetBytes"
vector 71 Scenario.node[1].wlan[0].mac.dcf packetReceivedFromPeerWithoutRetry:vector(packetBytes) ETV
attr interpolationmode none
attr recordingmode vector(packetBytes)
attr source ieee80211NotRetry(packetReceivedFromPeer)
attr title "packets received: without retry, packetBytes"
vector 72 Scenario.node[1].wlan[0].mac packetSentToUpper:vector(packetBytes) ETV
attr interpolationmode none
attr recordingmode vector(packetBytes)
attr title "packets sent to upper layer, packetBytes"
vector 73 Scenario.node[1].udp packetReceived:vector(packetBytes) ETV
attr interpolationmode none
attr recordingmode vector(packetBytes)
attr source packetReceived
attr title "packets received, packetBytes"
vector 74 Scenario.node[1].app[0] packetReceived:vector(packetBytes) ETV
attr interpolationmode none
attr recordingmode vector(packetBytes)
attr source packetReceived
attr title "packets received, packetBytes"
vector 75 Scenario.node[1].app[0] throughput:vector ETV
attr recordingmode vector
attr source throughput(packetReceived)
attr title throughput
attr unit bps
vector 76 Scenario.node[1].app[0] rcvdPkLifetime:vector ETV
attr interpolationmode none
attr recordingmode vector
attr source dataAge(packetReceived)
attr title "received packet lifetime"
attr unit s
vector 77 Scenario.node[1].app[0] packetSent:vector(packetBytes) ETV
attr interpolationmode none
attr recordingmode vector(packetBytes)
attr source packetSent
attr title "packets sent, packetBytes"
vector 78 Scenario.node[1].udp packetSent:vector(packetBytes) ETV
attr interpolationmode none
attr recordingmode vector(packetBytes)
attr source packetSent
attr title "packets sent, packetBytes"
vector 79 Scenario.node[1].lo[0].lo rcvdPkFromHl:vector(packetBytes) ETV
attr interpolationmode none
attr recordingmode vector(packetBytes)
attr source packetReceivedFromUpper
attr title "packets received from higher layer, packetBytes"
vector 80 Scenario.node[1].lo[0].lo passedUpPk:vector(packetBytes) ETV
attr interpolationmode none
attr recordingmode vector(packetBytes)
attr source packetSentToUpper
attr title "packets passed to higher layer, packetBytes"
vector 81 Scenario.node[1].wlan[0].mac packetReceivedFromUpper:vector(packetBytes) ETV
attr interpolationmode none
attr recordingmode vector(packetBytes)
attr title "packets received from upper layer, packetBytes"
vector 82 Scenario.node[1].wlan[0].mac.dcf.channelAccess.pendingQueue incomingPacketLengths:vector ETV
attr interpolationmode none
attr recordingmode vector
attr source packetLength(packetPushStarted)
attr title "incoming packet lengths"
attr unit b
vector 83 Scenario.node[1].wlan[0].mac.dcf.channelAccess.pendingQueue incomingDataRate:vector ETV
attr interpolationmode linear
attr recordingmode vector
attr source throughput(packetPushStarted)
attr title "incoming datarate"
attr unit bps
vector 84 Scenario.node[1].wlan[0].mac.dcf.channelAccess.pendingQueue queueLength:vector ETV
attr autoWarmupFilter false
attr interpolationmode sample-hold
attr recordingmode vector
attr source "warmup(atomic(constant0(packetPushEnded) + count(packetPushStarted) - count(packetPulled) - count(packetRemoved) - count(packetDropped)))"
attr title "queue length"
attr unit pk
vector 85 Scenario.node[1].wlan[0].mac.dcf.channelAccess.pendingQueue queueBitLength:vector ETV
attr autoWarmupFilter false
attr interpolationmode sample-hold
attr recordingmode vector
attr source "warmup(atomic(constant0(packetPushEnded) + sum(packetLength(packetPushStarted)) - sum(packetLength(packetPulled)) - sum(packetLength(packetRemoved)) - sum(packetLength(packetDropped))))"
attr title "queue bit length"
attr unit b
vector 86 Scenario.node[1].wlan[0].mac.dcf.channelAccess.contention backoffPeriodGenerated:vector ETV
attr interpolationmode none
attr recordingmode vector
attr title "backoff periods"
vector 87 Scenario.node[2].wlan[0].mac packetReceivedFromLower:vector(packetBytes) ETV
attr interpolationmode none
attr recordingmode vector(packetBytes)
attr title "packets received from lower layer, packetBytes"
vector 88 Scenario.node[2].wlan[0].mac.dcf packetReceivedFromPeer:vector(packetBytes) ETV
attr interpolationmode none
attr recordingmode vector(packetBytes)
attr title "packets received, packetBytes"
vector 89 Scenario.node[2].wlan[0].mac.dcf packetReceivedFromPeerMulticast:vector(packetBytes) ETV
attr interpolationmode none
attr recordingmode vector(packetBytes)
attr source ieee80211Multicast(packetReceivedFromPeer)
attr title "packets received: multicast, packetBytes"
vector 90 Scenario.node[2].wlan[0].mac.dcf packetReceivedFromPeerWithoutRetry:vector(packetBytes) ETV
attr interpolationmode none
attr recordingmode vector(packetBytes)
attr source ieee80211NotRetry(packetReceivedFromPeer)
attr title "packets received: without retry, packetBytes"
vector 91 Scenario.node[2].wlan[0].mac packetSentToUpper:vector(packetBytes) ETV
attr interpolationmode none
attr recordingmode vector(packetBytes)
attr title "packets sent to upper layer, packetBytes"
vector 92 Scenario.node[2].udp packetReceived:vector(packetBytes) ETV
attr interpolationmode none
attr recordingmode vector(packetBytes)
attr source packetReceived
attr title "packets received, packetBytes"
vector 93 Scenario.node[2].app[0] packetReceived:vector(packetBytes) ETV
attr interpolationmode none
attr recordingmode vector(packetBytes)
attr source packetReceived
attr title "packets received, packetBytes"
vector 94 Scenario.node[2].app[0] throughput:vector ETV
attr recordingmode vector
attr source throughput(packetReceived)
attr title throughput
attr unit bps
vector 95 Scenario.node[2].app[0] rcvdPkLifetime:vector ETV
attr interpolationmode none
attr recordingmode vector
attr source dataAge(packetReceived)
attr title "received packet lifetime"
attr unit s
vector 96 Scenario.node[2].app[0] packetSent:vector(packetBytes) ETV
attr interpolationmode none
attr recordingmode vector(packetBytes)
attr source packetSent
attr title "packets sent, packetBytes"
vector 97 Scenario.node[2].udp packetSent:vector(packetBytes) ETV
attr interpolationmode none
attr recordingmode vector(packetBytes)
attr source packetSent
attr title "packets sent, packetBytes"
vector 98 Scenario.node[2].lo[0].lo rcvdPkFromHl:vector(packetBytes) ETV
attr interpolationmode none
attr recordingmode vector(packetBytes)
attr source packetReceivedFromUpper
attr title "packets received from higher layer, packetBytes"
vector 99 Scenario.node[2].lo[0].lo passedUpPk:vector(packetBytes) ETV
attr interpolationmode none
attr recordingmode vector(packetBytes)
attr source packetSentToUpper
attr title "packets passed to higher layer, packetBytes"
vector 100 Scenario.node[2].wlan[0].mac packetReceivedFromUpper:vector(packetBytes) ETV
attr interpolationmode none
attr recordingmode vector(packetBytes)
attr title "packets received from upper layer, packetBytes"
vector 101 Scenario.node[2].wlan[0].mac.dcf.channelAccess.pendingQueue incomingPacketLengths:vector ETV
attr interpolationmode none
attr recordingmode vector
attr source packetLength(packetPushStarted)
attr title "incoming packet lengths"
attr unit b
vector 102 Scenario.node[2].wlan[0].mac.dcf.channelAccess.pendingQueue incomingDataRate:vector ETV
attr interpolationmode linear
attr recordingmode vector
attr source throughput(packetPushStarted)
attr title "incoming datarate"
attr unit bps
vector 103 Scenario.node[2].wlan[0].mac.dcf.channelAccess.pendingQueue queueLength:vector ETV
attr autoWarmupFilter false
attr interpolationmode sample-hold
attr recordingmode vector
attr source "warmup(atomic(constant0(packetPushEnded) + count(packetPushStarted) - count(packetPulled) - count(packetRemoved) - count(packetDropped)))"
attr title "queue length"
attr unit pk
vector 104 Scenario.node[2].wlan[0].mac.dcf.channelAccess.pendingQueue queueBitLength:vector ETV
attr autoWarmupFilter false
attr interpolationmode sample-hold
attr recordingmode vector
attr source "warmup(atomic(constant0(packetPushEnded) + sum(packetLength(packetPushStarted)) - sum(packetLength(packetPulled)) - sum(packetLength(packetRemoved)) - sum(packetLength(packetDropped))))"
attr title "queue bit length"
attr unit b
vector 105 Scenario.node[2].wlan[0].mac.dcf.channelAccess.contention backoffPeriodGenerated:vector ETV
attr interpolationmode none
attr recordingmode vector
attr title "backoff periods"
vector 106 Scenario.node[1].wlan[0].mac.dcf.channelAccess.pendingQueue queueingTime:vector ETV
attr interpolationmode none
attr recordingmode vector
attr source queueingTime(packetPulled)
attr title "queueing times"
attr unit s
vector 107 Scenario.node[1].wlan[0].mac.dcf.channelAccess.pendingQueue outgoingPacketLengths:vector ETV
attr interpolationmode none
attr recordingmode vector
attr source packetLength(packetPulled)
attr title "outgoing packet lengths"
attr unit b
vector 108 Scenario.node[1].wlan[0].mac.dcf.channelAccess.pendingQueue outgoingDataRate:vector ETV
attr interpolationmode linear
attr recordingmode vector
attr source throughput(packetPulled)
attr title "outgoing datarate"
attr unit bps
vector 109 Scenario.node[1].wlan[0].mac.dcf datarateSelected:vector ETV
attr interpolationmode none
attr recordingmode vector
attr title "datarates selected"
vector 110 Scenario.node[1].wlan[0].mac packetSentToLower:vector(packetBytes) ETV
attr interpolationmode none
attr recordingmode vector(packetBytes)
attr title "packets sent to lower layer, packetBytes"
vector 111 Scenario.node[1].wlan[0].radio transmissionState:vector ETV
attr interpolationmode sample-hold
attr recordingmode vector
attr source transmissionStateChanged
attr title "Radio transmission state"
vector 112 Scenario.node[1].wlan[0].mac.dcf packetSentToPeer:vector(packetBytes) ETV
attr interpolationmode none
attr recordingmode vector(packetBytes)
attr title "packets sent, packetBytes"
vector 113 Scenario.node[1].wlan[0].mac.dcf packetSentToPeerMulticast:vector(packetBytes) ETV
attr interpolationmode none
attr recordingmode vector(packetBytes)
attr source ieee80211Multicast(packetSentToPeer)
attr title "packets sent: multicast, packetBytes"
vector 114 Scenario.node[1].wlan[0].mac.dcf packetSentToPeerWithoutRetry:vector(packetBytes) ETV
attr interpolationmode none
attr recordingmode vector(packetBytes)
attr source ieee80211NotRetry(packetSentToPeer)
attr title "packets sent: without retry, packetBytes"
vector 115 Scenario.node[1].wlan[0].mac.dcf.channelAccess.inProgressFrames queueingTime:vector ETV
attr interpolationmode none
attr recordingmode vector
attr source queueingTime(packetDequeued)
attr title "queueing times"
vector 116 Scenario.node[0].wlan[0].mac packetReceivedFromLower:vector(packetBytes) ETV
attr interpolationmode none
attr recordingmode vector(packetBytes)
attr title "packets received from lower layer, packetBytes"
vector 117 Scenario.node[0].wlan[0].mac.dcf packetReceivedFromPeer:vector(packetBytes) ETV
attr interpolationmode none
attr recordingmode vector(packetBytes)
attr title "packets received, packetBytes"
vector 118 Scenario.node[0].wlan[0].mac.dcf packetReceivedFromPeerMulticast:vector(packetBytes) ETV
attr interpolationmode none
attr recordingmode vector(packetBytes)
attr source ieee80211Multicast(packetReceivedFromPeer)
attr title "packets received: multicast, packetBytes"
vector 119 Scenario.node[0].wlan[0].mac.dcf packetReceivedFromPeerWithoutRetry:vector(packetBytes) ETV
attr interpolationmode none
attr recordingmode vector(packetBytes)
attr source ieee80211NotRetry(packetReceivedFromPeer)
attr title "packets received: without retry, packetBytes"
vector 120 Scenario.node[0].wlan[0].mac packetSentToUpper:vector(packetBytes) ETV
attr interpolationmode none
attr recordingmode vector(packetBytes)
attr title "packets sent to upper layer, packetBytes"
vector 121 Scenario.node[3].wlan[0].mac packetReceivedFromLower:vector(packetBytes) ETV
attr interpolationmode none
attr recordingmode vector(packetBytes)
attr title "packets received from lower layer, packetBytes"
vector 122 Scenario.node[3].wlan[0].mac.dcf packetReceivedFromPeer:vector(packetBytes) ETV
attr interpolationmode none
attr recordingmode vector(packetBytes)
attr title "packets received, packetBytes"
vector 123 Scenario.node[3].wlan[0].mac.dcf packetReceivedFromPeerMulticast:vector(packetBytes) ETV
attr interpolationmode none
attr recordingmode vector(packetBytes)
attr source ieee80211Multicast(packetReceivedFromPeer)
attr title "packets received: multicast, packetBytes"
vector 124 Scenario.node[3].wlan[0].mac.dcf packetReceivedFromPeerWithoutRetry:vector(packetBytes) ETV
attr interpolationmode none
attr recordingmode vector(packetBytes)
attr source ieee80211NotRetry(packetReceivedFromPeer)
attr title "packets received: without retry, packetBytes"
vector 125 Scenario.node[3].wlan[0].mac packetSentToUpper:vector(packetBytes) ETV
attr interpolationmode none
attr recordingmode vector(packetBytes)
attr title "packets sent to upper layer, packetBytes"
vector 126 Scenario.node[3].udp packetReceived:vector(packetBytes) ETV
attr interpolationmode none
attr recordingmode vector(packetBytes)
attr source packetReceived
attr title "packets received, packetBytes"
vector 127 Scenario.node[3].app[0] packetReceived:vector(packetBytes) ETV
attr interpolationmode none
attr recordingmode vector(packetBytes)
attr source packetReceived
attr title "packets received, packetBytes"
vector 128 Scenario.node[3].app[0] throughput:vector ETV
attr recordingmode vector
attr source throughput(packetReceived)
attr title throughput
attr unit bps
vector 129 Scenario.node[3].app[0] rcvdPkLifetime:vector ETV
attr interpolationmode none
attr recordingmode vector
attr source dataAge(packetReceived)
attr title "received packet lifetime"
attr unit s
vector 130 Scenario.node[3].app[0] packetSent:vector(packetBytes) ETV
attr interpolationmode none
attr recordingmode vector(packetBytes)
attr source packetSent
attr title "packets sent, packetBytes"
vector 131 Scenario.node[3].udp packetSent:vector(packetBytes) ETV
attr interpolationmode none
attr recordingmode vector(packetBytes)
attr source packetSent
attr title "packets sent, packetBytes"
vector 132 Scenario.node[3].lo[0].lo rcvdPkFromHl:vector(packetBytes) ETV
attr interpolationmode none
attr recordingmode vector(packetBytes)
attr source packetReceivedFromUpper
attr title "packets received from higher layer, packetBytes"
vector 133 Scenario.node[3].lo[0].lo passedUpPk:vector(packetBytes) ETV
attr interpolationmode none
attr recordingmode vector(packetBytes)
attr source packetSentToUpper
attr title "packets passed to higher layer, packetBytes"
vector 134 Scenario.node[3].wlan[0].mac packetReceivedFromUpper:vector(packetBytes) ETV
attr interpolationmode none
attr recordingmode vector(packetBytes)
attr title "packets received from upper layer, packetBytes"
vector 135 Scenario.node[3].wlan[0].mac.dcf.channelAccess.pendingQueue incomingPacketLengths:vector ETV
attr interpolationmode none
attr recordingmode vector
attr source packetLength(packetPushStarted)
attr title "incoming packet lengths"
attr unit b
vector 136 Scenario.node[3].wlan[0].mac.dcf.channelAccess.pendingQueue incomingDataRate:vector ETV
attr interpolationmode linear
attr recordingmode vector
attr source throughput(packetPushStarted)
attr title "incoming datarate"
attr unit bps
vector 137 Scenario.node[3].wlan[0].mac.dcf.channelAccess.pendingQueue queueLength:vector ETV
attr autoWarmupFilter false
attr interpolationmode sample-hold
attr recordingmode vector
attr source "warmup(atomic(constant0(packetPushEnded) + count(packetPushStarted) - count(packetPulled) - count(packetRemoved) - count(packetDropped)))"
attr title "queue length"
attr unit pk
vector 138 Scenario.node[3].wlan[0].mac.dcf.channelAccess.pendingQueue queueBitLength:vector ETV
attr autoWarmupFilter false
attr interpolationmode sample-hold
attr recordingmode vector
attr source "warmup(atomic(constant0(packetPushEnded) + sum(packetLength(packetPushStarted)) - sum(packetLength(packetPulled)) - sum(packetLength(packetRemoved)) - sum(packetLength(packetDropped))))"
attr title "queue bit length"
attr unit b
vector 139 Scenario.node[3].wlan[0].mac.dcf.channelAccess.contention backoffPeriodGenerated:vector ETV
attr interpolationmode none
attr recordingmode vector
attr title "backoff periods"
vector 140 Scenario.node[3].wlan[0].mac.dcf.channelAccess.pendingQueue queueingTime:vector ETV
attr interpolationmode none
attr recordingmode vector
attr source queueingTime(packetPulled)
attr title "queueing times"
attr unit s
vector 141 Scenario.node[3].wlan[0].mac.dcf.channelAccess.pendingQueue outgoingPacketLengths:vector ETV
attr interpolationmode none
attr recordingmode vector
attr source packetLength(packetPulled)
attr title "outgoing packet lengths"
attr unit b
vector 142 Scenario.node[3].wlan[0].mac.dcf.channelAccess.pendingQueue outgoingDataRate:vector ETV
attr interpolationmode linear
attr recordingmode vector
attr source throughput(packetPulled)
attr title "outgoing datarate"
attr unit bps
vector 143 Scenario.node[3].wlan[0].mac.dcf datarateSelected:vector ETV
attr interpolationmode none
attr recordingmode vector
attr title "datarates selected"
vector 144 Scenario.node[3].wlan[0].mac packetSentToLower:vector(packetBytes) ETV
attr interpolationmode none
attr recordingmode vector(packetBytes)
attr title "packets sent to lower layer, packetBytes"
vector 145 Scenario.node[3].wlan[0].radio transmissionState:vector ETV
attr interpolationmode sample-hold
attr recordingmode vector
attr source transmissionStateChanged
attr title "Radio transmission state"
vector 146 Scenario.node[1].wlan[0].mac packetDrop:vector(packetBytes) ETV
attr interpolationmode none
attr recordingmode vector(packetBytes)
attr source packetDropped
attr title "packet drops, packetBytes"
vector 147 Scenario.node[1].wlan[0].mac packetDropIncorrectlyReceived:vector(packetBytes) ETV
attr interpolationmode none
attr recordingmode vector(packetBytes)
attr source packetDropReasonIsIncorrectlyReceived(packetDropped)
attr title "packet drops: incorrectly received, packetBytes"
vector 148 Scenario.node[2].wlan[0].mac packetDrop:vector(packetBytes) ETV
attr interpolationmode none
attr recordingmode vector(packetBytes)
attr source packetDropped
attr title "packet drops, packetBytes"
vector 149 Scenario.node[2].wlan[0].mac packetDropIncorrectlyReceived:vector(packetBytes) ETV
attr interpolationmode none
attr recordingmode vector(packetBytes)
attr source packetDropReasonIsIncorrectlyReceived(packetDropped)
attr title "packet drops: incorrectly received, packetBytes"
vector 150 Scenario.node[3].wlan[0].mac.dcf packetSentToPeer:vector(packetBytes) ETV
attr interpolationmode none
attr recordingmode vector(packetBytes)
attr title "packets sent, packetBytes"
vector 151 Scenario.node[3].wlan[0].mac.dcf packetSentToPeerMulticast:vector(packetBytes) ETV
attr interpolationmode none
attr recordingmode vector(packetBytes)
attr source ieee80211Multicast(packetSentToPeer)
attr title "packets sent: multicast, packetBytes"
vector 152 Scenario.node[3].wlan[0].mac.dcf packetSentToPeerWithoutRetry:vector(packetBytes) ETV
attr interpolationmode none
attr recordingmode vector(packetBytes)
attr source ieee80211NotRetry(packetSentToPeer)
attr title "packets sent: without retry, packetBytes"
vector 153 Scenario.node[3].wlan[0].mac.dcf.channelAccess.inProgressFrames queueingTime:vector ETV
attr interpolationmode none
attr recordingmode vector
attr source queueingTime(packetDequeued)
attr title "queueing times"
vector 154 Scenario.node[2].wlan[0].mac.dcf.channelAccess.pendingQueue queueingTime:vector ETV
attr interpolationmode none
attr recordingmode vector
attr source queueingTime(packetPulled)
attr title "queueing times"
attr unit s
vector 155 Scenario.node[2].wlan[0].mac.dcf.channelAccess.pendingQueue outgoingPacketLengths:vector ETV
attr interpolationmode none
attr recordingmode vector
attr source packetLength(packetPulled)
attr title "outgoing packet lengths"
attr unit b
vector 156 Scenario.node[2].wlan[0].mac.dcf.channelAccess.pendingQueue outgoingDataRate:vector ETV
attr interpolationmode linear
attr recordingmode vector
attr source throughput(packetPulled)
attr title "outgoing datarate"
attr unit bps
vector 157 Scenario.node[2].wlan[0].mac.dcf datarateSelected:vector ETV
attr interpolationmode none
attr recordingmode vector
attr title "datarates selected"
vector 158 Scenario.node[2].wlan[0].mac packetSentToLower:vector(packetBytes) ETV
attr interpolationmode none
attr recordingmode vector(packetBytes)
attr title "packets sent to lower layer, packetBytes"
vector 159 Scenario.node[2].wlan[0].radio transmissionState:vector ETV
attr interpolationmode sample-hold
attr recordingmode vector
attr source transmissionStateChanged
attr title "Radio transmission state"
vector 160 Scenario.node[2].wlan[0].mac.dcf packetSentToPeer:vector(packetBytes) ETV
attr interpolationmode none
attr recordingmode vector(packetBytes)
attr title "packets sent, packetBytes"
vector 161 Scenario.node[2].wlan[0].mac.dcf packetSentToPeerMulticast:vector(packetBytes) ETV
attr interpolationmode none
attr recordingmode vector(packetBytes)
attr source ieee80211Multicast(packetSentToPeer)
attr title "packets sent: multicast, packetBytes"
vector 162 Scenario.node[2].wlan[0].mac.dcf packetSentToPeerWithoutRetry:vector(packetBytes) ETV
attr interpolationmode none
attr recordingmode vector(packetBytes)
attr source ieee80211NotRetry(packetSentToPeer)
attr title "packets sent: without retry, packetBytes"
vector 163 Scenario.node[2].wlan[0].mac.dcf.channelAccess.inProgressFrames queueingTime:vector ETV
attr interpolationmode none
attr recordingmode vector
attr source queueingTime(packetDequeued)
attr title "queueing times"
73	244	20.000152130935	108
73	252	20.000152130935	108
73	349	20.001097676378	108
78	246	20.000152130935	108
14	35	3.1	0
14	244	20.000152130935	1
14	252	20.000152130935	2
14	349	20.001097676378	3
15	35	3.1	0
16	35	3.1	0
79	248	20.000152130935	128
80	248	20.000152130935	128
108	270	3.2	0
108	270	3.3	0
108	270	3.4	0
108	270	3.5	0
108	270	3.6	0
108	270	3.7	0
108	270	3.8	0
108	270	3.9	0
108	270	4	0
108	270	4.1	0
108	270	4.2	0
108	270	4.3	0
108	270	4.4	0
108	270	4.5	0
108	270	4.6	0
108	270	4.7	0
108	270	4.8	0
108	270	4.9	0
108	270	5	0
108	270	5.1	0
108	270	5.2	0
108	270	5.3	0
108	270	5.4	0
108	270	5.5	0
108	270	5.6	0
108	270	5.7	0
108	270	5.8	0
108	270	5.9	0
108	270	6	0
108	270	6.1	0
108	270	6.2	0
108	270	6.3	0
108	270	6.4	0
108	270	6.5	0
108	270	6.6	0
108	270	6.7	0
108	270	6.8	0
108	270	6.9	0
108	270	7	0
108	270	7.1	0
108	270	7.2	0
108	270	7.3	0
108	270	7.4	0
108	270	7.5	0
108	270	7.6	0
108	270	7.7	0
108	270	7.8	0
108	270	7.9	0
108	270	8	0
108	270	8.1	0
108	270	8.2	0
108	270	8.3	0
108	270	8.4	0
108	270	8.5	0
108	270	8.6	0
108	270	8.7	0
108	270	8.8	0
108	270	8.9	0
108	270	9	0
108	270	9.1	0
108	270	9.2	0
108	270	9.3	0
108	270	9.4	0
108	270	9.5	0
108	270	9.6	0
108	270	9.7	0
108	270	9.8	0
108	270	9.9	0
108	270	10	0
108	270	10.1	0
108	270	10.2	0
108	270	10.3	0
108	270	10.4	0
108	270	10.5	0
108	270	10.6	0
108	270	10.7	0
108	270	10.8	0
108	270	10.9	0
108	270	11	0
108	270	11.1	0
108	270	11.2	0
108	270	11.3	0
108	270	11.4	0
108	270	11.5	0
108	270	11.6	0
108	270	11.7	0
108	270	11.8	0
108	270	11.9	0
108	270	12	0
108	270	12.1	0
108	270	12.2	0
108	270	12.3	0
108	270	12.4	0
108	270	12.5	0
108	270	12.6	0
108	270	12.7	0
108	270	12.8	0
108	270	12.9	0
108	270	13	0
108	270	13.1	0
108	270	13.2	0
108	270	13.3	0
108	270	13.4	0
108	270	13.5	0
108	270	13.6	0
108	270	13.7	0
108	270	13.8	0
108	270	13.9	0
108	270	14	0
108	270	14.1	0
108	270	14.2	0
108	270	14.3	0
108	270	14.4	0
108	270	14.5	0
108	270	14.6	0
108	270	14.7	0
108	270	14.8	0
108	270	14.9	0
108	270	15	0
108	270	15.1	0
108	270	15.2	0
108	270	15.3	0
108	270	15.4	0
108	270	15.5	0
108	270	15.6	0
108	270	15.7	0
108	270	15.8	0
108	270	15.9	0
108	270	16	0
108	270	16.1	0
108	270	16.2	0
108	270	16.3	0
108	270	16.4	0
108	270	16.5	0
108	270	16.6	0
108	270	16.7	0
108	270	16.8	0
108	270	16.9	0
108	270	17	0
108	270	17.1	0
108	270	17.2	0
108	270	17.3	0
108	270	17.4	0
108	270	17.5	0
108	270	17.6	0
108	270	17.7	0
108	270	17.8	0
108	270	17.9	0
108	270	18	0
108	270	18.1	0
108	270	18.2	0
108	270	18.3	0
108	270	18.4	0
108	270	18.5	0
108	270	18.6	0
108	270	18.7	0
108	270	18.8	0
108	270	18.9	0
108	270	19	0
108	270	19.1	0
108	270	19.2	0
108	270	19.3	0
108	270	19.4	0
108	270	19.5	0
108	270	19.6	0
108	270	19.7	0
108	270	19.8	0
108	270	19.9	0
108	270	20	0
108	468	20.1	12640
108	468	20.2	0
108	468	20.3	0
108	468	20.4	0
108	468	20.5	0
108	468	20.6	0
108	468	20.7	0
108	468	20.8	0
108	468	20.9	0
108	468	21	0
108	468	21.1	0
108	468	21.2	0
108	468	21.3	0
108	468	21.4	0
108	468	21.5	0
108	468	21.6	0
108	468	21.7	0
108	468	21.8	0
108	468	21.9	0
108	468	22	0
108	468	22.1	0
108	468	22.2	0
108	468	22.3	0
108	468	22.4	0
108	468	22.5	0
108	468	22.6	0
108	468	22.7	0
108	468	22.8	0
108	468	22.9	0
108	468	23	0
108	468	23.1	0
108	468	23.2	0
108	468	23.3	0
108	468	23.4	0
108	468	23.5	0
108	468	23.6	0
108	468	23.7	0
108	468	23.8	0
108	468	23.9	0
108	468	24	0
108	468	24.1	0
108	468	24.2	0
108	468	24.3	0
108	468	24.4	0
108	468	24.5	0
108	468	24.6	0
108	468	24.7	0
108	468	24.8	0
108	468	24.9	0
108	468	25	0
108	468	25.1	0
108	468	25.2	0
108	468	25.3	0
108	468	25.4	0
108	468	25.5	0
108	468	25.6	0
108	468	25.7	0
108	468	25.8	0
108	468	25.9	0
108	468	26	0
108	468	26.1	0
108	468	26.2	0
108	468	26.3	0
108	468	26.4	0
108	468	26.5	0
108	468	26.6	0
108	468	26.7	0
108	468	26.8	0
108	468	26.9	0
108	468	27	0
108	468	27.1	0
108	468	27.2	0
108	468	27.3	0
108	468	27.4	0
108	468	27.5	0
108	468	27.6	0
108	468	27.7	0
108	468	27.8	0
108	468	27.9	0
108	468	28	0
108	468	28.1	0
108	468	28.2	0
108	468	28.3	0
108	468	28.4	0
108	468	28.5	0
108	468	28.6	0
108	468	28.7	0
108	468	28.8	0
108	468	28.9	0
108	468	29	0
108	468	29.1	0
108	468	29.2	0
108	468	29.3	0
108	468	29.4	0
108	468	29.5	0
108	468	29.6	0
108	468	29.7	0
108	468	29.8	0
108	468	29.9	0
108	468	30	0
108	468	30.1	0
108	468	30.2	0
108	468	30.3	0
108	468	30.4	0
108	468	30.5	0
108	468	30.6	0
108	468	30.7	0
107	270	20.000288130935	1264
106	270	20.000288130935	0.000136
83	251	3.2	0
83	251	3.3	0
83	251	3.4	0
83	251	3.5	0
83	251	3.6	0
83	251	3.7	0
83	251	3.8	0
83	251	3.9	0
83	251	4	0
83	251	4.1	0
83	251	4.2	0
83	251	4.3	0
83	251	4.4	0
83	251	4.5	0
83	251	4.6	0
83	251	4.7	0
83	251	4.8	0
83	251	4.9	0
83	251	5	0
83	251	5.1	0
83	251	5.2	0
83	251	5.3	0
83	251	5.4	0
83	251	5.5	0
83	251	5.6	0
83	251	5.7	0
83	251	5.8	0
83	251	5.9	0
83	251	6	0
83	251	6.1	0
83	251	6.2	0
83	251	6.3	0
83	251	6.4	0
83	251	6.5	0
83	251	6.6	0
83	251	6.7	0
83	251	6.8	0
83	251	6.9	0
83	251	7	0
83	251	7.1	0
83	251	7.2	0
83	251	7.3	0
83	251	7.4	0
83	251	7.5	0
83	251	7.6	0
83	251	7.7	0
83	251	7.8	0
83	251	7.9	0
83	251	8	0
83	251	8.1	0
83	251	8.2	0
83	251	8.3	0
83	251	8.4	0
83	251	8.5	0
83	251	8.6	0
83	251	8.7	0
83	251	8.8	0
83	251	8.9	0
83	251	9	0
83	251	9.1	0
83	251	9.2	0
83	251	9.3	0
83	251	9.4	0
83	251	9.5	0
83	251	9.6	0
83	251	9.7	0
83	251	9.8	0
83	251	9.9	0
83	251	10	0
83	251	10.1	0
83	251	10.2	0
83	251	10.3	0
83	251	10.4	0
83	251	10.5	0
83	251	10.6	0
83	251	10.7	0
83	251	10.8	0
83	251	10.9	0
83	251	11	0
83	251	11.1	0
83	251	11.2	0
83	251	11.3	0
83	251	11.4	0
83	251	11.5	0
83	251	11.6	0
83	251	11.7	0
83	251	11.8	0
83	251	11.9	0
83	251	12	0
83	251	12.1	0
83	251	12.2	0
83	251	12.3	0
83	251	12.4	0
83	251	12.5	0
83	251	12.6	0
83	251	12.7	0
83	251	12.8	0
83	251	12.9	0
83	251	13	0
83	251	13.1	0
83	251	13.2	0
83	251	13.3	0
83	251	13.4	0
83	251	13.5	0
83	251	13.6	0
83	251	13.7	0
83	251	13.8	0
83	251	13.9	0
83	251	14	0
83	251	14.1	0
83	251	14.2	0
83	251	14.3	0
83	251	14.4	0
83	251	14.5	0
83	251	14.6	0
83	251	14.7	0
83	251	14.8	0
83	251	14.9	0
83	251	15	0
83	251	15.1	0
83	251	15.2	0
83	251	15.3	0
83	251	15.4	0
83	251	15.5	0
83	251	15.6	0
83	251	15.7	0
83	251	15.8	0
83	251	15.9	0
83	251	16	0
83	251	16.1	0
83	251	16.2	0
83	251	16.3	0
83	251	16.4	0
83	251	16.5	0
83	251	16.6	0
83	251	16.7	0
83	251	16.8	0
83	251	16.9	0
83	251	17	0
83	251	17.1	0
83	251	17.2	0
83	251	17.3	0
83	251	17.4	0
83	251	17.5	0
83	251	17.6	0
83	251	17.7	0
83	251	17.8	0
83	251	17.9	0
83	251	18	0
83	251	18.1	0
83	251	18.2	0
83	251	18.3	0
83	251	18.4	0
83	251	18.5	0
83	251	18.6	0
83	251	18.7	0
83	251	18.8	0
83	251	18.9	0
83	251	19	0
83	251	19.1	0
83	251	19.2	0
83	251	19.3	0
83	251	19.4	0
83	251	19.5	0
83	251	19.6	0
83	251	19.7	0
83	251	19.8	0
83	251	19.9	0
83	251	20	0
83	468	20.1	12640
83	468	20.2	0
83	468	20.3	0
83	468	20.4	0
83	468	20.5	0
83	468	20.6	0
83	468	20.7	0
83	468	20.8	0
83	468	20.9	0
83	468	21	0
83	468	21.1	0
83	468	21.2	0
83	468	21.3	0
83	468	21.4	0
83	468	21.5	0
83	468	21.6	0
83	468	21.7	0
83	468	21.8	0
83	468	21.9	0
83	468	22	0
83	468	22.1	0
83	468	22.2	0
83	468	22.3	0
83	468	22.4	0
83	468	22.5	0
83	468	22.6	0
83	468	22.7	0
83	468	22.8	0
83	468	22.9	0
83	468	23	0
83	468	23.1	0
83	468	23.2	0
83	468	23.3	0
83	468	23.4	0
83	468	23.5	0
83	468	23.6	0
83	468	23.7	0
83	468	23.8	0
83	468	23.9	0
83	468	24	0
83	468	24.1	0
83	468	24.2	0
83	468	24.3	0
83	468	24.4	0
83	468	24.5	0
83	468	24.6	0
83	468	24.7	0
83	468	24.8	0
83	468	24.9	0
83	468	25	0
83	468	25.1	0
83	468	25.2	0
83	468	25.3	0
83	468	25.4	0
83	468	25.5	0
83	468	25.6	0
83	468	25.7	0
83	468	25.8	0
83	468	25.9	0
83	468	26	0
83	468	26.1	0
83	468	26.2	0
83	468	26.3	0
83	468	26.4	0
83	468	26.5	0
83	468	26.6	0
83	468	26.7	0
83	468	26.8	0
83	468	26.9	0
83	468	27	0
83	468	27.1	0
83	468	27.2	0
83	468	27.3	0
83	468	27.4	0
83	468	27.5	0
83	468	27.6	0
83	468	27.7	0
83	468	27.8	0
83	468	27.9	0
83	468	28	0
83	468	28.1	0
83	468	28.2	0
83	468	28.3	0
83	468	28.4	0
83	468	28.5	0
83	468	28.6	0
83	468	28.7	0
83	468	28.8	0
83	468	28.9	0
83	468	29	0
83	468	29.1	0
83	468	29.2	0
83	468	29.3	0
83	468	29.4	0
83	468	29.5	0
83	468	29.6	0
83	468	29.7	0
83	468	29.8	0
83	468	29.9	0
83	468	30	0
83	468	30.1	0
83	468	30.2	0
83	468	30.3	0
83	468	30.4	0
83	468	30.5	0
83	468	30.6	0
83	468	30.7	0
82	251	20.000152130935	1264
84	251	20.000152130935	1
84	270	20.000288130935	0
85	251	20.000152130935	1264
85	270	20.000288130935	0
115	276	20.000440130935	0.000152
12	35	3.1	0
12	35	3.1	0
12	270	20.000288130935	1
12	276	20.000440130935	0
13	35	3.1	0
13	35	3.1	0
13	251	20.000152130935	1
13	269	20.000288130935	0
86	251	20.000152130935	6
20	35	3.1	0
20	35	3.1	0
20	235	20.000000130935	0
20	235	20.000000130935	0
20	240	20.000152130935	0
20	240	20.000152130935	0
20	251	20.000152130935	0
20	251	20.000152130935	2
20	269	20.000288130935	2
20	269	20.000288130935	0
20	271	20.000288130935	0
20	271	20.000288130935	0
20	277	20.000440130935	0
20	277	20.000440130935	0
20	308	20.000511392805	0
20	308	20.000511392805	0
20	321	20.000663392805	0
20	321	20.000663392805	0
20	328	20.000754676377	0
20	328	20.000754676377	0
20	335	20.000945676378	0
20	335	20.000945676378	0
20	345	20.001097676378	0
20	345	20.001097676378	0
21	35	3.1	15
109	270	20.000288130935	12000000
11	35	3.1	0
11	35	3.1	0
11	270	20.000288130935	1
11	276	20.000440130935	0
71	241	20.000152130935	158
71	346	20.001097676378	158
70	241	20.000152130935	158
70	346	20.001097676378	158
69	241	20.000152130935	158
69	346	20.001097676378	158
114	276	20.000440130935	158
113	276	20.000440130935	158
112	276	20.000440130935	158
68	241	20.000152130935	158
68	321	20.000663392805	158
68	346	20.001097676378	158
110	270	20.000288130935	158
81	251	20.000152130935	130
72	241	20.000152130935	130
72	346	20.001097676378	130
147	321	20.000663392805	158
146	321	20.000663392805	158
18	35	3.1	3
17	35	3.1	0
17	35	3.1	0
17	35	3.1	2
17	271	20.000288130935	3
17	277	20.000440130935	2
19	35	3.1	1
19	235	20.000000130935	3
19	240	20.000152130935	1
19	271	20.000288130935	0
19	277	20.000440130935	1
19	308	20.000511392805	3
19	320	20.000663392805	2
19	328	20.000754676377	1
19	335	20.000945676378	3
19	345	20.001097676378	1
111	271	20.000288130935	1
111	272	20.000288130935	2
111	276	20.000440130935	1
111	277	20.000440130935	0
76	245	20.000152130935	0.000152130935
76	253	20.000152130935	0.000152130935
76	350	20.001097676378	0.001097676378
75	245	3.2	0
75	245	3.3	0
75	245	3.4	0
75	245	3.5	0
75	245	3.6	0
75	245	3.7	0
75	245	3.8	0
75	245	3.9	0
75	245	4	0
75	245	4.1	0
75	245	4.2	0
75	245	4.3	0
75	245	4.4	0
75	245	4.5	0
75	245	4.6	0
75	245	4.7	0
75	245	4.8	0
75	245	4.9	0
75	245	5	0
75	245	5.1	0
75	245	5.2	0
75	245	5.3	0
75	245	5.4	0
75	245	5.5	0
75	245	5.6	0
75	245	5.7	0
75	245	5.8	0
75	245	5.9	0
75	245	6	0
75	245	6.1	0
75	245	6.2	0
75	245	6.3	0
75	245	6.4	0
75	245	6.5	0
75	245	6.6	0
75	245	6.7	0
75	245	6.8	0
75	245	6.9	0
75	245	7	0
75	245	7.1	0
75	245	7.2	0
75	245	7.3	0
75	245	7.4	0
75	245	7.5	0
75	245	7.6	0
75	245	7.7	0
75	245	7.8	0
75	245	7.9	0
75	245	8	0
75	245	8.1	0
75	245	8.2	0
75	245	8.3	0
75	245	8.4	0
75	245	8.5	0
75	245	8.6	0
75	245	8.7	0
75	245	8.8	0
75	245	8.9	0
75	245	9	0
75	245	9.1	0
75	245	9.2	0
75	245	9.3	0
75	245	9.4	0
75	245	9.5	0
75	245	9.6	0
75	245	9.7	0
75	245	9.8	0
75	245	9.9	0
75	245	10	0
75	245	10.1	0
75	245	10.2	0
75	245	10.3	0
75	245	10.4	0
75	245	10.5	0
75	245	10.6	0
75	245	10.7	0
75	245	10.8	0
75	245	10.9	0
75	245	11	0
75	245	11.1	0
75	245	11.2	0
75	245	11.3	0
75	245	11.4	0
75	245	11.5	0
75	245	11.6	0
75	245	11.7	0
75	245	11.8	0
75	245	11.9	0
75	245	12	0
75	245	12.1	0
75	245	12.2	0
75	245	12.3	0
75	245	12.4	0
75	245	12.5	0
75	245	12.6	0
75	245	12.7	0
75	245	12.8	0
75	245	12.9	0
75	245	13	0
75	245	13.1	0
75	245	13.2	0
75	245	13.3	0
75	245	13.4	0
75	245	13.5	0
75	245	13.6	0
75	245	13.7	0
75	245	13.8	0
75	245	13.9	0
75	245	14	0
75	245	14.1	0
75	245	14.2	0
75	245	14.3	0
75	245	14.4	0
75	245	14.5	0
75	245	14.6	0
75	245	14.7	0
75	245	14.8	0
75	245	14.9	0
75	245	15	0
75	245	15.1	0
75	245	15.2	0
75	245	15.3	0
75	245	15.4	0
75	245	15.5	0
75	245	15.6	0
75	245	15.7	0
75	245	15.8	0
75	245	15.9	0
75	245	16	0
75	245	16.1	0
75	245	16.2	0
75	245	16.3	0
75	245	16.4	0
75	245	16.5	0
75	245	16.6	0
75	245	16.7	0
75	245	16.8	0
75	245	16.9	0
75	245	17	0
75	245	17.1	0
75	245	17.2	0
75	245	17.3	0
75	245	17.4	0
75	245	17.5	0
75	245	17.6	0
75	245	17.7	0
75	245	17.8	0
75	245	17.9	0
75	245	18	0
75	245	18.1	0
75	245	18.2	0
75	245	18.3	0
75	245	18.4	0
75	245	18.5	0
75	245	18.6	0
75	245	18.7	0
75	245	18.8	0
75	245	18.9	0
75	245	19	0
75	245	19.1	0
75	245	19.2	0
75	245	19.3	0
75	245	19.4	0
75	245	19.5	0
75	245	19.6	0
75	245	19.7	0
75	245	19.8	0
75	245	19.9	0
75	245	20	0
75	468	20.1	24000
75	468	20.2	0
75	468	20.3	0
75	468	20.4	0
75	468	20.5	0
75	468	20.6	0
75	468	20.7	0
75	468	20.8	0
75	468	20.9	0
75	468	21	0
75	468	21.1	0
75	468	21.2	0
75	468	21.3	0
75	468	21.4	0
75	468	21.5	0
75	468	21.6	0
75	468	21.7	0
75	468	21.8	0
75	468	21.9	0
75	468	22	0
75	468	22.1	0
75	468	22.2	0
75	468	22.3	0
75	468	22.4	0
75	468	22.5	0
75	468	22.6	0
75	468	22.7	0
75	468	22.8	0
75	468	22.9	0
75	468	23	0
75	468	23.1	0
75	468	23.2	0
75	468	23.3	0
75	468	23.4	0
75	468	23.5	0
75	468	23.6	0
75	468	23.7	0
75	468	23.8	0
75	468	23.9	0
75	468	24	0
75	468	24.1	0
75	468	24.2	0
75	468	24.3	0
75	468	24.4	0
75	468	24.5	0
75	468	24.6	0
75	468	24.7	0
75	468	24.8	0
75	468	24.9	0
75	468	25	0
75	468	25.1	0
75	468	25.2	0
75	468	25.3	0
75	468	25.4	0
75	468	25.5	0
75	468	25.6	0
75	468	25.7	0
75	468	25.8	0
75	468	25.9	0
75	468	26	0
75	468	26.1	0
75	468	26.2	0
75	468	26.3	0
75	468	26.4	0
75	468	26.5	0
75	468	26.6	0
75	468	26.7	0
75	468	26.8	0
75	468	26.9	0
75	468	27	0
75	468	27.1	0
75	468	27.2	0
75	468	27.3	0
75	468	27.4	0
75	468	27.5	0
75	468	27.6	0
75	468	27.7	0
75	468	27.8	0
75	468	27.9	0
75	468	28	0
75	468	28.1	0
75	468	28.2	0
75	468	28.3	0
75	468	28.4	0
75	468	28.5	0
75	468	28.6	0
75	468	28.7	0
75	468	28.8	0
75	468	28.9	0
75	468	29	0
75	468	29.1	0
75	468	29.2	0
75	468	29.3	0
75	468	29.4	0
75	468	29.5	0
75	468	29.6	0
75	468	29.7	0
75	468	29.8	0
75	468	29.9	0
75	468	30	0
75	468	30.1	0
75	468	30.2	0
75	468	30.3	0
75	468	30.4	0
75	468	30.5	0
75	468	30.6	0
75	468	30.7	0
74	245	20.000152130935	100
74	253	20.000152130935	100
74	350	20.001097676378	100
77	245	20.000152130935	100
92	258	20.000152216528	108
92	266	20.000152216528	108
92	288	20.000440269439	108
97	260	20.000152216528	108
25	68	6.1	0
25	258	20.000152216528	1
25	266	20.000152216528	2
25	288	20.000440269439	3
26	68	6.1	0
27	68	6.1	0
98	262	20.000152216528	128
99	262	20.000152216528	128
156	331	6.2	0
156	331	6.3	0
156	331	6.4	0
156	331	6.5	0
156	331	6.6	0
156	331	6.7	0
156	331	6.8	0
156	331	6.9	0
156	331	7	0
156	331	7.1	0
156	331	7.2	0
156	331	7.3	0
156	331	7.4	0
156	331	7.5	0
156	331	7.6	0
156	331	7.7	0
156	331	7.8	0
156	331	7.9	0
156	331	8	0
156	331	8.1	0
156	331	8.2	0
156	331	8.3	0
156	331	8.4	0
156	331	8.5	0
156	331	8.6	0
156	331	8.7	0
156	331	8.8	0
156	331	8.9	0
156	331	9	0
156	331	9.1	0
156	331	9.2	0
156	331	9.3	0
156	331	9.4	0
156	331	9.5	0
156	331	9.6	0
156	331	9.7	0
156	331	9.8	0
156	331	9.9	0
156	331	10	0
156	331	10.1	0
156	331	10.2	0
156	331	10.3	0
156	331	10.4	0
156	331	10.5	0
156	331	10.6	0
156	331	10.7	0
156	331	10.8	0
156	331	10.9	0
156	331	11	0
156	331	11.1	0
156	331	11.2	0
156	331	11.3	0
156	331	11.4	0
156	331	11.5	0
156	331	11.6	0
156	331	11.7	0
156	331	11.8	0
156	331	11.9	0
156	331	12	0
156	331	12.1	0
156	331	12.2	0
156	331	12.3	0
156	331	12.4	0
156	331	12.5	0
156	331	12.6	0
156	331	12.7	0
156	331	12.8	0
156	331	12.9	0
156	331	13	0
156	331	13.1	0
156	331	13.2	0
156	331	13.3	0
156	331	13.4	0
156	331	13.5	0
156	331	13.6	0
156	331	13.7	0
156	331	13.8	0
156	331	13.9	0
156	331	14	0
156	331	14.1	0
156	331	14.2	0
156	331	14.3	0
156	331	14.4	0
156	331	14.5	0
156	331	14.6	0
156	331	14.7	0
156	331	14.8	0
156	331	14.9	0
156	331	15	0
156	331	15.1	0
156	331	15.2	0
156	331	15.3	0
156	331	15.4	0
156	331	15.5	0
156	331	15.6	0
156	331	15.7	0
156	331	15.8	0
156	331	15.9	0
156	331	16	0
156	331	16.1	0
156	331	16.2	0
156	331	16.3	0
156	331	16.4	0
156	331	16.5	0
156	331	16.6	0
156	331	16.7	0
156	331	16.8	0
156	331	16.9	0
156	331	17	0
156	331	17.1	0
156	331	17.2	0
156	331	17.3	0
156	331	17.4	0
156	331	17.5	0
156	331	17.6	0
156	331	17.7	0
156	331	17.8	0
156	331	17.9	0
156	331	18	0
156	331	18.1	0
156	331	18.2	0
156	331	18.3	0
156	331	18.4	0
156	331	18.5	0
156	331	18.6	0
156	331	18.7	0
156	331	18.8	0
156	331	18.9	0
156	331	19	0
156	331	19.1	0
156	331	19.2	0
156	331	19.3	0
156	331	19.4	0
156	331	19.5	0
156	331	19.6	0
156	331	19.7	0
156	331	19.8	0
156	331	19.9	0
156	331	20	0
156	504	20.1	12640
156	504	20.2	0
156	504	20.3	0
156	504	20.4	0
156	504	20.5	0
156	504	20.6	0
156	504	20.7	0
156	504	20.8	0
156	504	20.9	0
156	504	21	0
156	504	21.1	0
156	504	21.2	0
156	504	21.3	0
156	504	21.4	0
156	504	21.5	0
156	504	21.6	0
156	504	21.7	0
156	504	21.8	0
156	504	21.9	0
156	504	22	0
156	504	22.1	0
156	504	22.2	0
156	504	22.3	0
156	504	22.4	0
156	504	22.5	0
156	504	22.6	0
156	504	22.7	0
156	504	22.8	0
156	504	22.9	0
156	504	23	0
156	504	23.1	0
156	504	23.2	0
156	504	23.3	0
156	504	23.4	0
156	504	23.5	0
156	504	23.6	0
156	504	23.7	0
156	504	23.8	0
156	504	23.9	0
156	504	24	0
156	504	24.1	0
156	504	24.2	0
156	504	24.3	0
156	504	24.4	0
156	504	24.5	0
156	504	24.6	0
156	504	24.7	0
156	504	24.8	0
156	504	24.9	0
156	504	25	0
156	504	25.1	0
156	504	25.2	0
156	504	25.3	0
156	504	25.4	0
156	504	25.5	0
156	504	25.6	0
156	504	25.7	0
156	504	25.8	0
156	504	25.9	0
156	504	26	0
156	504	26.1	0
156	504	26.2	0
156	504	26.3	0
156	504	26.4	0
156	504	26.5	0
156	504	26.6	0
156	504	26.7	0
156	504	26.8	0
156	504	26.9	0
156	504	27	0
156	504	27.1	0
156	504	27.2	0
156	504	27.3	0
156	504	27.4	0
156	504	27.5	0
156	504	27.6	0
156	504	27.7	0
156	504	27.8	0
156	504	27.9	0
156	504	28	0
156	504	28.1	0
156	504	28.2	0
156	504	28.3	0
156	504	28.4	0
156	504	28.5	0
156	504	28.6	0
156	504	28.7	0
156	504	28.8	0
156	504	28.9	0
156	504	29	0
156	504	29.1	0
156	504	29.2	0
156	504	29.3	0
156	504	29.4	0
156	504	29.5	0
156	504	29.6	0
156	504	29.7	0
156	504	29.8	0
156	504	29.9	0
156	504	30	0
156	504	30.1	0
156	504	30.2	0
156	504	30.3	0
156	504	30.4	0
156	504	30.5	0
156	504	30.6	0
156	504	30.7	0
156	504	30.8	0
156	504	30.9	0
156	504	31	0
156	504	31.1	0
156	504	31.2	0
156	504	31.3	0
156	504	31.4	0
156	504	31.5	0
156	504	31.6	0
156	504	31.7	0
156	504	31.8	0
156	504	31.9	0
156	504	32	0
156	504	32.1	0
156	504	32.2	0
156	504	32.3	0
156	504	32.4	0
156	504	32.5	0
156	504	32.6	0
156	504	32.7	0
156	504	32.8	0
156	504	32.9	0
156	504	33	0
156	504	33.1	0
156	504	33.2	0
156	504	33.3	0
156	504	33.4	0
156	504	33.5	0
156	504	33.6	0
156	504	33.7	0
156	504	33.8	0
156	504	33.9	0
156	504	34	0
156	504	34.1	0
156	504	34.2	0
156	504	34.3	0
155	331	20.000945537874	1264
154	331	20.000945537874	0.000793321346
102	265	6.2	0
102	265	6.3	0
102	265	6.4	0
102	265	6.5	0
102	265	6.6	0
102	265	6.7	0
102	265	6.8	0
102	265	6.9	0
102	265	7	0
102	265	7.1	0
102	265	7.2	0
102	265	7.3	0
102	265	7.4	0
102	265	7.5	0
102	265	7.6	0
102	265	7.7	0
102	265	7.8	0
102	265	7.9	0
102	265	8	0
102	265	8.1	0
102	265	8.2	0
102	265	8.3	0
102	265	8.4	0
102	265	8.5	0
102	265	8.6	0
102	265	8.7	0
102	265	8.8	0
102	265	8.9	0
102	265	9	0
102	265	9.1	0
102	265	9.2	0
102	265	9.3	0
102	265	9.4	0
102	265	9.5	0
102	265	9.6	0
102	265	9.7	0
102	265	9.8	0
102	265	9.9	0
102	265	10	0
102	265	10.1	0
102	265	10.2	0
102	265	10.3	0
102	265	10.4	0
102	265	10.5	0
102	265	10.6	0
102	265	10.7	0
102	265	10.8	0
102	265	10.9	0
102	265	11	0
102	265	11.1	0
102	265	11.2	0
102	265	11.3	0
102	265	11.4	0
102	265	11.5	0
102	265	11.6	0
102	265	11.7	0
102	265	11.8	0
102	265	11.9	0
102	265	12	0
102	265	12.1	0
102	265	12.2	0
102	265	12.3	0
102	265	12.4	0
102	265	12.5	0
102	265	12.6	0
102	265	12.7	0
102	265	12.8	0
102	265	12.9	0
102	265	13	0
102	265	13.1	0
102	265	13.2	0
102	265	13.3	0
102	265	13.4	0
102	265	13.5	0
102	265	13.6	0
102	265	13.7	0
102	265	13.8	0
102	265	13.9	0
102	265	14	0
102	265	14.1	0
102	265	14.2	0
102	265	14.3	0
102	265	14.4	0
102	265	14.5	0
102	265	14.6	0
102	265	14.7	0
102	265	14.8	0
102	265	14.9	0
102	265	15	0
102	265	15.1	0
102	265	15.2	0
102	265	15.3	0
102	265	15.4	0
102	265	15.5	0
102	265	15.6	0
102	265	15.7	0
102	265	15.8	0
102	265	15.9	0
102	265	16	0
102	265	16.1	0
102	265	16.2	0
102	265	16.3	0
102	265	16.4	0
102	265	16.5	0
102	265	16.6	0
102	265	16.7	0
102	265	16.8	0
102	265	16.9	0
102	265	17	0
102	265	17.1	0
102	265	17.2	0
102	265	17.3	0
102	265	17.4	0
102	265	17.5	0
102	265	17.6	0
102	265	17.7	0
102	265	17.8	0
102	265	17.9	0
102	265	18	0
102	265	18.1	0
102	265	18.2	0
102	265	18.3	0
102	265	18.4	0
102	265	18.5	0
102	265	18.6	0
102	265	18.7	0
102	265	18.8	0
102	265	18.9	0
102	265	19	0
102	265	19.1	0
102	265	19.2	0
102	265	19.3	0
102	265	19.4	0
102	265	19.5	0
102	265	19.6	0
102	265	19.7	0
102	265	19.8	0
102	265	19.9	0
102	265	20	0
102	504	20.1	12640
102	504	20.2	0
102	504	20.3	0
102	504	20.4	0
102	504	20.5	0
102	504	20.6	0
102	504	20.7	0
102	504	20.8	0
102	504	20.9	0
102	504	21	0
102	504	21.1	0
102	504	21.2	0
102	504	21.3	0
102	504	21.4	0
102	504	21.5	0
102	504	21.6	0
102	504	21.7	0
102	504	21.8	0
102	504	21.9	0
102	504	22	0
102	504	22.1	0
102	504	22.2	0
102	504	22.3	0
102	504	22.4	0
102	504	22.5	0
102	504	22.6	0
102	504	22.7	0
102	504	22.8	0
102	504	22.9	0
102	504	23	0
102	504	23.1	0
102	504	23.2	0
102	504	23.3	0
102	504	23.4	0
102	504	23.5	0
102	504	23.6	0
102	504	23.7	0
102	504	23.8	0
102	504	23.9	0
102	504	24	0
102	504	24.1	0
102	504	24.2	0
102	504	24.3	0
102	504	24.4	0
102	504	24.5	0
102	504	24.6	0
102	504	24.7	0
102	504	24.8	0
102	504	24.9	0
102	504	25	0
102	504	25.1	0
102	504	25.2	0
102	504	25.3	0
102	504	25.4	0
102	504	25.5	0
102	504	25.6	0
102	504	25.7	0
102	504	25.8	0
102	504	25.9	0
102	504	26	0
102	504	26.1	0
102	504	26.2	0
102	504	26.3	0
102	504	26.4	0
102	504	26.5	0
102	504	26.6	0
102	504	26.7	0
102	504	26.8	0
102	504	26.9	0
102	504	27	0
102	504	27.1	0
102	504	27.2	0
102	504	27.3	0
102	504	27.4	0
102	504	27.5	0
102	504	27.6	0
102	504	27.7	0
102	504	27.8	0
102	504	27.9	0
102	504	28	0
102	504	28.1	0
102	504	28.2	0
102	504	28.3	0
102	504	28.4	0
102	504	28.5	0
102	504	28.6	0
102	504	28.7	0
102	504	28.8	0
102	504	28.9	0
102	504	29	0
102	504	29.1	0
102	504	29.2	0
102	504	29.3	0
102	504	29.4	0
102	504	29.5	0
102	504	29.6	0
102	504	29.7	0
102	504	29.8	0
102	504	29.9	0
102	504	30	0
102	504	30.1	0
102	504	30.2	0
102	504	30.3	0
102	504	30.4	0
102	504	30.5	0
102	504	30.6	0
102	504	30.7	0
102	504	30.8	0
102	504	30.9	0
102	504	31	0
102	504	31.1	0
102	504	31.2	0
102	504	31.3	0
102	504	31.4	0
102	504	31.5	0
102	504	31.6	0
102	504	31.7	0
102	504	31.8	0
102	504	31.9	0
102	504	32	0
102	504	32.1	0
102	504	32.2	0
102	504	32.3	0
102	504	32.4	0
102	504	32.5	0
102	504	32.6	0
102	504	32.7	0
102	504	32.8	0
102	504	32.9	0
102	504	33	0
102	504	33.1	0
102	504	33.2	0
102	504	33.3	0
102	504	33.4	0
102	504	33.5	0
102	504	33.6	0
102	504	33.7	0
102	504	33.8	0
102	504	33.9	0
102	504	34	0
102	504	34.1	0
102	504	34.2	0
102	504	34.3	0
101	265	20.000152216528	1264
103	265	20.000152216528	1
103	331	20.000945537874	0
104	265	20.000152216528	1264
104	331	20.000945537874	0
163	337	20.001097537874	0.000152
23	68	6.1	0
23	68	6.1	0
23	331	20.000945537874	1
23	337	20.001097537874	0
24	68	6.1	0
24	68	6.1	0
24	265	20.000152216528	1
24	274	20.000288269439	0
24	284	20.000440269439	1
24	309	20.000511478398	0
24	327	20.000754537874	1
24	330	20.000945537874	0
105	265	20.000152216528	8
31	68	6.1	0
31	68	6.1	0
31	236	20.000000216528	0
31	236	20.000000216528	0
31	254	20.000152216528	0
31	254	20.000152216528	0
31	265	20.000152216528	0
31	265	20.000152216528	2
31	274	20.000288269439	2
31	274	20.000288269439	1
31	284	20.000440269439	1
31	284	20.000440269439	2
31	309	20.000511478398	2
31	309	20.000511478398	1
31	323	20.000663478398	1
31	323	20.000663478398	1
31	327	20.000754537874	1
31	327	20.000754537874	2
31	330	20.000945537874	2
31	330	20.000945537874	0
31	332	20.000945537874	0
31	332	20.000945537874	0
31	338	20.001097537874	0
31	338	20.001097537874	0
32	68	6.1	15
157	331	20.000945537874	12000000
22	68	6.1	0
22	68	6.1	0
22	331	20.000945537874	1
22	337	20.001097537874	0
90	255	20.000152216528	158
90	285	20.000440269439	158
89	255	20.000152216528	158
89	285	20.000440269439	158
88	255	20.000152216528	158
88	285	20.000440269439	158
162	337	20.001097537874	158
161	337	20.001097537874	158
160	337	20.001097537874	158
87	255	20.000152216528	158
87	285	20.000440269439	158
87	323	20.000663478398	158
158	331	20.000945537874	158
100	265	20.000152216528	130
91	255	20.000152216528	130
91	285	20.000440269439	130
149	323	20.000663478398	158
148	323	20.000663478398	158
29	68	6.1	3
28	68	6.1	0
28	68	6.1	0
28	68	6.1	2
28	332	20.000945537874	3
28	338	20.001097537874	2
30	68	6.1	1
30	236	20.000000216528	3
30	254	20.000152216528	1
30	274	20.000288269439	3
30	284	20.000440269439	1
30	309	20.000511478398	3
30	322	20.000663478398	2
30	327	20.000754537874	1
30	332	20.000945537874	0
30	338	20.001097537874	1
159	332	20.000945537874	1
159	333	20.000945537874	2
159	337	20.001097537874	1
159	338	20.001097537874	0
95	259	20.000152216528	0.000152216528
95	267	20.000152216528	0.000152216528
95	289	20.000440269439	0.000440269439
94	259	6.2	0
94	259	6.3	0
94	259	6.4	0
94	259	6.5	0
94	259	6.6	0
94	259	6.7	0
94	259	6.8	0
94	259	6.9	0
94	259	7	0
94	259	7.1	0
94	259	7.2	0
94	259	7.3	0
94	259	7.4	0
94	259	7.5	0
94	259	7.6	0
94	259	7.7	0
94	259	7.8	0
94	259	7.9	0
94	259	8	0
94	259	8.1	0
94	259	8.2	0
94	259	8.3	0
94	259	8.4	0
94	259	8.5	0
94	259	8.6	0
94	259	8.7	0
94	259	8.8	0
94	259	8.9	0
94	259	9	0
94	259	9.1	0
94	259	9.2	0
94	259	9.3	0
94	259	9.4	0
94	259	9.5	0
94	259	9.6	0
94	259	9.7	0
94	259	9.8	0
94	259	9.9	0
94	259	10	0
94	259	10.1	0
94	259	10.2	0
94	259	10.3	0
94	259	10.4	0
94	259	10.5	0
94	259	10.6	0
94	259	10.7	0
94	259	10.8	0
94	259	10.9	0
94	259	11	0
94	259	11.1	0
94	259	11.2	0
94	259	11.3	0
94	259	11.4	0
94	259	11.5	0
94	259	11.6	0
94	259	11.7	0
94	259	11.8	0
94	259	11.9	0
94	259	12	0
94	259	12.1	0
94	259	12.2	0
94	259	12.3	0
94	259	12.4	0
94	259	12.5	0
94	259	12.6	0
94	259	12.7	0
94	259	12.8	0
94	259	12.9	0
94	259	13	0
94	259	13.1	0
94	259	13.2	0
94	259	13.3	0
94	259	13.4	0
94	259	13.5	0
94	259	13.6	0
94	259	13.7	0
94	259	13.8	0
94	259	13.9	0
94	259	14	0
94	259	14.1	0
94	259	14.2	0
94	259	14.3	0
94	259	14.4	0
94	259	14.5	0
94	259	14.6	0
94	259	14.7	0
94	259	14.8	0
94	259	14.9	0
94	259	15	0
94	259	15.1	0
94	259	15.2	0
94	259	15.3	0
94	259	15.4	0
94	259	15.5	0
94	259	15.6	0
94	259	15.7	0
94	259	15.8	0
94	259	15.9	0
94	259	16	0
94	259	16.1	0
94	259	16.2	0
94	259	16.3	0
94	259	16.4	0
94	259	16.5	0
94	259	16.6	0
94	259	16.7	0
94	259	16.8	0
94	259	16.9	0
94	259	17	0
94	259	17.1	0
94	259	17.2	0
94	259	17.3	0
94	259	17.4	0
94	259	17.5	0
94	259	17.6	0
94	259	17.7	0
94	259	17.8	0
94	259	17.9	0
94	259	18	0
94	259	18.1	0
94	259	18.2	0
94	259	18.3	0
94	259	18.4	0
94	259	18.5	0
94	259	18.6	0
94	259	18.7	0
94	259	18.8	0
94	259	18.9	0
94	259	19	0
94	259	19.1	0
94	259	19.2	0
94	259	19.3	0
94	259	19.4	0
94	259	19.5	0
94	259	19.6	0
94	259	19.7	0
94	259	19.8	0
94	259	19.9	0
94	259	20	0
94	504	20.1	24000
94	504	20.2	0
94	504	20.3	0
94	504	20.4	0
94	504	20.5	0
94	504	20.6	0
94	504	20.7	0
94	504	20.8	0
94	504	20.9	0
94	504	21	0
94	504	21.1	0
94	504	21.2	0
94	504	21.3	0
94	504	21.4	0
94	504	21.5	0
94	504	21.6	0
94	504	21.7	0
94	504	21.8	0
94	504	21.9	0
94	504	22	0
94	504	22.1	0
94	504	22.2	0
94	504	22.3	0
94	504	22.4	0
94	504	22.5	0
94	504	22.6	0
94	504	22.7	0
94	504	22.8	0
94	504	22.9	0
94	504	23	0
94	504	23.1	0
94	504	23.2	0
94	504	23.3	0
94	504	23.4	0
94	504	23.5	0
94	504	23.6	0
94	504	23.7	0
94	504	23.8	0
94	504	23.9	0
94	504	24	0
94	504	24.1	0
94	504	24.2	0
94	504	24.3	0
94	504	24.4	0
94	504	24.5	0
94	504	24.6	0
94	504	24.7	0
94	504	24.8	0
94	504	24.9	0
94	504	25	0
94	504	25.1	0
94	504	25.2	0
94	504	25.3	0
94	504	25.4	0
94	504	25.5	0
94	504	25.6	0
94	504	25.7	0
94	504	25.8	0
94	504	25.9	0
94	504	26	0
94	504	26.1	0
94	504	26.2	0
94	504	26.3	0
94	504	26.4	0
94	504	26.5	0
94	504	26.6	0
94	504	26.7	0
94	504	26.8	0
94	504	26.9	0
94	504	27	0
94	504	27.1	0
94	504	27.2	0
94	504	27.3	0
94	504	27.4	0
94	504	27.5	0
94	504	27.6	0
94	504	27.7	0
94	504	27.8	0
94	504	27.9	0
94	504	28	0
94	504	28.1	0
94	504	28.2	0
94	504	28.3	0
94	504	28.4	0
94	504	28.5	0
94	504	28.6	0
94	504	28.7	0
94	504	28.8	0
94	504	28.9	0
94	504	29	0
94	504	29.1	0
94	504	29.2	0
94	504	29.3	0
94	504	29.4	0
94	504	29.5	0
94	504	29.6	0
94	504	29.7	0
94	504	29.8	0
94	504	29.9	0
94	504	30	0
94	504	30.1	0
94	504	30.2	0
94	504	30.3	0
94	504	30.4	0
94	504	30.5	0
94	504	30.6	0
94	504	30.7	0
94	504	30.8	0
94	504	30.9	0
94	504	31	0
94	504	31.1	0
94	504	31.2	0
94	504	31.3	0
94	504	31.4	0
94	504	31.5	0
94	504	31.6	0
94	504	31.7	0
94	504	31.8	0
94	504	31.9	0
94	504	32	0
94	504	32.1	0
94	504	32.2	0
94	504	32.3	0
94	504	32.4	0
94	504	32.5	0
94	504	32.6	0
94	504	32.7	0
94	504	32.8	0
94	504	32.9	0
94	504	33	0
94	504	33.1	0
94	504	33.2	0
94	504	33.3	0
94	504	33.4	0
94	504	33.5	0
94	504	33.6	0
94	504	33.7	0
94	504	33.8	0
94	504	33.9	0
94	504	34	0
94	504	34.1	0
94	504	34.2	0
94	504	34.3	0
93	259	20.000152216528	100
93	267	20.000152216528	100
93	289	20.000440269439	100
96	259	20.000152216528	100
126	294	20.000440403656	108
126	302	20.000440403656	108
126	343	20.001097672092	108
131	296	20.000440403656	108
36	101	9.1	0
36	294	20.000440403656	1
36	302	20.000440403656	2
36	343	20.001097672092	3
37	101	9.1	0
38	101	9.1	0
132	298	20.000440403656	128
133	298	20.000440403656	128
142	312	9.2	0
142	312	9.3	0
142	312	9.4	0
142	312	9.5	0
142	312	9.6	0
142	312	9.7	0
142	312	9.8	0
142	312	9.9	0
142	312	10	0
142	312	10.1	0
142	312	10.2	0
142	312	10.3	0
142	312	10.4	0
142	312	10.5	0
142	312	10.6	0
142	312	10.7	0
142	312	10.8	0
142	312	10.9	0
142	312	11	0
142	312	11.1	0
142	312	11.2	0
142	312	11.3	0
142	312	11.4	0
142	312	11.5	0
142	312	11.6	0
142	312	11.7	0
142	312	11.8	0
142	312	11.9	0
142	312	12	0
142	312	12.1	0
142	312	12.2	0
142	312	12.3	0
142	312	12.4	0
142	312	12.5	0
142	312	12.6	0
142	312	12.7	0
142	312	12.8	0
142	312	12.9	0
142	312	13	0
142	312	13.1	0
142	312	13.2	0
142	312	13.3	0
142	312	13.4	0
142	312	13.5	0
142	312	13.6	0
142	312	13.7	0
142	312	13.8	0
142	312	13.9	0
142	312	14	0
142	312	14.1	0
142	312	14.2	0
142	312	14.3	0
142	312	14.4	0
142	312	14.5	0
142	312	14.6	0
142	312	14.7	0
142	312	14.8	0
142	312	14.9	0
142	312	15	0
142	312	15.1	0
142	312	15.2	0
142	312	15.3	0
142	312	15.4	0
142	312	15.5	0
142	312	15.6	0
142	312	15.7	0
142	312	15.8	0
142	312	15.9	0
142	312	16	0
142	312	16.1	0
142	312	16.2	0
142	312	16.3	0
142	312	16.4	0
142	312	16.5	0
142	312	16.6	0
142	312	16.7	0
142	312	16.8	0
142	312	16.9	0
142	312	17	0
142	312	17.1	0
142	312	17.2	0
142	312	17.3	0
142	312	17.4	0
142	312	17.5	0
142	312	17.6	0
142	312	17.7	0
142	312	17.8	0
142	312	17.9	0
142	312	18	0
142	312	18.1	0
142	312	18.2	0
142	312	18.3	0
142	312	18.4	0
142	312	18.5	0
142	312	18.6	0
142	312	18.7	0
142	312	18.8	0
142	312	18.9	0
142	312	19	0
142	312	19.1	0
142	312	19.2	0
142	312	19.3	0
142	312	19.4	0
142	312	19.5	0
142	312	19.6	0
142	312	19.7	0
142	312	19.8	0
142	312	19.9	0
142	312	20	0
142	541	20.1	12640
142	541	20.2	0
142	541	20.3	0
142	541	20.4	0
142	541	20.5	0
142	541	20.6	0
142	541	20.7	0
142	541	20.8	0
142	541	20.9	0
142	541	21	0
142	541	21.1	0
142	541	21.2	0
142	541	21.3	0
142	541	21.4	0
142	541	21.5	0
142	541	21.6	0
142	541	21.7	0
142	541	21.8	0
142	541	21.9	0
142	541	22	0
142	541	22.1	0
142	541	22.2	0
142	541	22.3	0
142	541	22.4	0
142	541	22.5	0
142	541	22.6	0
142	541	22.7	0
142	541	22.8	0
142	541	22.9	0
142	541	23	0
142	541	23.1	0
142	541	23.2	0
142	541	23.3	0
142	541	23.4	0
142	541	23.5	0
142	541	23.6	0
142	541	23.7	0
142	541	23.8	0
142	541	23.9	0
142	541	24	0
142	541	24.1	0
142	541	24.2	0
142	541	24.3	0
142	541	24.4	0
142	541	24.5	0
142	541	24.6	0
142	541	24.7	0
142	541	24.8	0
142	541	24.9	0
142	541	25	0
142	541	25.1	0
142	541	25.2	0
142	541	25.3	0
142	541	25.4	0
142	541	25.5	0
142	541	25.6	0
142	541	25.7	0
142	541	25.8	0
142	541	25.9	0
142	541	26	0
142	541	26.1	0
142	541	26.2	0
142	541	26.3	0
142	541	26.4	0
142	541	26.5	0
142	541	26.6	0
142	541	26.7	0
142	541	26.8	0
142	541	26.9	0
142	541	27	0
142	541	27.1	0
142	541	27.2	0
142	541	27.3	0
142	541	27.4	0
142	541	27.5	0
142	541	27.6	0
142	541	27.7	0
142	541	27.8	0
142	541	27.9	0
142	541	28	0
142	541	28.1	0
142	541	28.2	0
142	541	28.3	0
142	541	28.4	0
142	541	28.5	0
142	541	28.6	0
142	541	28.7	0
142	541	28.8	0
142	541	28.9	0
142	541	29	0
142	541	29.1	0
142	541	29.2	0
142	541	29.3	0
142	541	29.4	0
142	541	29.5	0
142	541	29.6	0
142	541	29.7	0
142	541	29.8	0
142	541	29.9	0
142	541	30	0
142	541	30.1	0
142	541	30.2	0
142	541	30.3	0
142	541	30.4	0
142	541	30.5	0
142	541	30.6	0
142	541	30.7	0
142	541	30.8	0
142	541	30.9	0
142	541	31	0
142	541	31.1	0
142	541	31.2	0
142	541	31.3	0
142	541	31.4	0
142	541	31.5	0
142	541	31.6	0
142	541	31.7	0
142	541	31.8	0
142	541	31.9	0
142	541	32	0
142	541	32.1	0
142	541	32.2	0
142	541	32.3	0
142	541	32.4	0
142	541	32.5	0
142	541	32.6	0
142	541	32.7	0
142	541	32.8	0
142	541	32.9	0
142	541	33	0
142	541	33.1	0
142	541	33.2	0
142	541	33.3	0
142	541	33.4	0
142	541	33.5	0
142	541	33.6	0
142	541	33.7	0
142	541	33.8	0
142	541	33.9	0
142	541	34	0
142	541	34.1	0
142	541	34.2	0
142	541	34.3	0
142	541	34.4	0
142	541	34.5	0
142	541	34.6	0
142	541	34.7	0
142	541	34.8	0
142	541	34.9	0
142	541	35	0
142	541	35.1	0
142	541	35.2	0
142	541	35.3	0
142	541	35.4	0
142	541	35.5	0
142	541	35.6	0
142	541	35.7	0
142	541	35.8	0
142	541	35.9	0
142	541	36	0
142	541	36.1	0
142	541	36.2	0
142	541	36.3	0
142	541	36.4	0
142	541	36.5	0
142	541	36.6	0
142	541	36.7	0
142	541	36.8	0
142	541	36.9	0
142	541	37	0
142	541	37.1	0
142	541	37.2	0
142	541	37.3	0
142	541	37.4	0
142	541	37.5	0
142	541	37.6	0
142	541	37.7	0
142	541	37.8	0
142	541	37.9	0
142	541	38	0
141	312	20.000602403656	1264
140	312	20.000602403656	0.000162
136	301	9.2	0
136	301	9.3	0
136	301	9.4	0
136	301	9.5	0
136	301	9.6	0
136	301	9.7	0
136	301	9.8	0
136	301	9.9	0
136	301	10	0
136	301	10.1	0
136	301	10.2	0
136	301	10.3	0
136	301	10.4	0
136	301	10.5	0
136	301	10.6	0
136	301	10.7	0
136	301	10.8	0
136	301	10.9	0
136	301	11	0
136	301	11.1	0
136	301	11.2	0
136	301	11.3	0
136	301	11.4	0
136	301	11.5	0
136	301	11.6	0
136	301	11.7	0
136	301	11.8	0
136	301	11.9	0
136	301	12	0
136	301	12.1	0
136	301	12.2	0
136	301	12.3	0
136	301	12.4	0
136	301	12.5	0
136	301	12.6	0
136	301	12.7	0
136	301	12.8	0
136	301	12.9	0
136	301	13	0
136	301	13.1	0
136	301	13.2	0
136	301	13.3	0
136	301	13.4	0
136	301	13.5	0
136	301	13.6	0
136	301	13.7	0
136	301	13.8	0
136	301	13.9	0
136	301	14	0
136	301	14.1	0
136	301	14.2	0
136	301	14.3	0
136	301	14.4	0
136	301	14.5	0
136	301	14.6	0
136	301	14.7	0
136	301	14.8	0
136	301	14.9	0
136	301	15	0
136	301	15.1	0
136	301	15.2	0
136	301	15.3	0
136	301	15.4	0
136	301	15.5	0
136	301	15.6	0
136	301	15.7	0
136	301	15.8	0
136	301	15.9	0
136	301	16	0
136	301	16.1	0
136	301	16.2	0
136	301	16.3	0
136	301	16.4	0
136	301	16.5	0
136	301	16.6	0
136	301	16.7	0
136	301	16.8	0
136	301	16.9	0
136	301	17	0
136	301	17.1	0
136	301	17.2	0
136	301	17.3	0
136	301	17.4	0
136	301	17.5	0
136	301	17.6	0
136	301	17.7	0
136	301	17.8	0
136	301	17.9	0
136	301	18	0
136	301	18.1	0
136	301	18.2	0
136	301	18.3	0
136	301	18.4	0
136	301	18.5	0
136	301	18.6	0
136	301	18.7	0
136	301	18.8	0
136	301	18.9	0
136	301	19	0
136	301	19.1	0
136	301	19.2	0
136	301	19.3	0
136	301	19.4	0
136	301	19.5	0
136	301	19.6	0
136	301	19.7	0
136	301	19.8	0
136	301	19.9	0
136	301	20	0
136	541	20.1	12640
136	541	20.2	0
136	541	20.3	0
136	541	20.4	0
136	541	20.5	0
136	541	20.6	0
136	541	20.7	0
136	541	20.8	0
136	541	20.9	0
136	541	21	0
136	541	21.1	0
136	541	21.2	0
136	541	21.3	0
136	541	21.4	0
136	541	21.5	0
136	541	21.6	0
136	541	21.7	0
136	541	21.8	0
136	541	21.9	0
136	541	22	0
136	541	22.1	0
136	541	22.2	0
136	541	22.3	0
136	541	22.4	0
136	541	22.5	0
136	541	22.6	0
136	541	22.7	0
136	541	22.8	0
136	541	22.9	0
136	541	23	0
136	541	23.1	0
136	541	23.2	0
136	541	23.3	0
136	541	23.4	0
136	541	23.5	0
136	541	23.6	0
136	541	23.7	0
136	541	23.8	0
136	541	23.9	0
136	541	24	0
136	541	24.1	0
136	541	24.2	0
136	541	24.3	0
136	541	24.4	0
136	541	24.5	0
136	541	24.6	0
136	541	24.7	0
136	541	24.8	0
136	541	24.9	0
136	541	25	0
136	541	25.1	0
136	541	25.2	0
136	541	25.3	0
136	541	25.4	0
136	541	25.5	0
136	541	25.6	0
136	541	25.7	0
136	541	25.8	0
136	541	25.9	0
136	541	26	0
136	541	26.1	0
136	541	26.2	0
136	541	26.3	0
136	541	26.4	0
136	541	26.5	0
136	541	26.6	0
136	541	26.7	0
136	541	26.8	0
136	541	26.9	0
136	541	27	0
136	541	27.1	0
136	541	27.2	0
136	541	27.3	0
136	541	27.4	0
136	541	27.5	0
136	541	27.6	0
136	541	27.7	0
136	541	27.8	0
136	541	27.9	0
136	541	28	0
136	541	28.1	0
136	541	28.2	0
136	541	28.3	0
136	541	28.4	0
136	541	28.5	0
136	541	28.6	0
136	541	28.7	0
136	541	28.8	0
136	541	28.9	0
136	541	29	0
136	541	29.1	0
136	541	29.2	0
136	541	29.3	0
136	541	29.4	0
136	541	29.5	0
136	541	29.6	0
136	541	29.7	0
136	541	29.8	0
136	541	29.9	0
136	541	30	0
136	541	30.1	0
136	541	30.2	0
136	541	30.3	0
136	541	30.4	0
136	541	30.5	0
136	541	30.6	0
136	541	30.7	0
136	541	30.8	0
136	541	30.9	0
136	541	31	0
136	541	31.1	0
136	541	31.2	0
136	541	31.3	0
136	541	31.4	0
136	541	31.5	0
136	541	31.6	0
136	541	31.7	0
136	541	31.8	0
136	541	31.9	0
136	541	32	0
136	541	32.1	0
136	541	32.2	0
136	541	32.3	0
136	541	32.4	0
136	541	32.5	0
136	541	32.6	0
136	541	32.7	0
136	541	32.8	0
136	541	32.9	0
136	541	33	0
136	541	33.1	0
136	541	33.2	0
136	541	33.3	0
136	541	33.4	0
136	541	33.5	0
136	541	33.6	0
136	541	33.7	0
136	541	33.8	0
136	541	33.9	0
136	541	34	0
136	541	34.1	0
136	541	34.2	0
136	541	34.3	0
136	541	34.4	0
136	541	34.5	0
136	541	34.6	0
136	541	34.7	0
136	541	34.8	0
136	541	34.9	0
136	541	35	0
136	541	35.1	0
136	541	35.2	0
136	541	35.3	0
136	541	35.4	0
136	541	35.5	0
136	541	35.6	0
136	541	35.7	0
136	541	35.8	0
136	541	35.9	0
136	541	36	0
136	541	36.1	0
136	541	36.2	0
136	541	36.3	0
136	541	36.4	0
136	541	36.5	0
136	541	36.6	0
136	541	36.7	0
136	541	36.8	0
136	541	36.9	0
136	541	37	0
136	541	37.1	0
136	541	37.2	0
136	541	37.3	0
136	541	37.4	0
136	541	37.5	0
136	541	37.6	0
136	541	37.7	0
136	541	37.8	0
136	541	37.9	0
136	541	38	0
135	301	20.000440403656	1264
137	301	20.000440403656	1
137	312	20.000602403656	0
138	301	20.000440403656	1264
138	312	20.000602403656	0
153	325	20.000754403656	0.000152
34	101	9.1	0
34	101	9.1	0
34	312	20.000602403656	1
34	325	20.000754403656	0
35	101	9.1	0
35	101	9.1	0
35	301	20.000440403656	1
35	311	20.000602403656	0
139	301	20.000440403656	8
42	101	9.1	0
42	101	9.1	0
42	275	20.000288403656	0
42	275	20.000288403656	0
42	290	20.000440403656	0
42	290	20.000440403656	0
42	301	20.000440403656	0
42	301	20.000440403656	2
42	311	20.000602403656	2
42	311	20.000602403656	0
42	313	20.000602403656	0
42	313	20.000602403656	0
42	326	20.000754403656	0
42	326	20.000754403656	0
42	334	20.000945672092	0
42	334	20.000945672092	0
42	339	20.001097672092	0
42	339	20.001097672092	0
43	101	9.1	15
143	312	20.000602403656	12000000
33	101	9.1	0
33	101	9.1	0
33	312	20.000602403656	1
33	325	20.000754403656	0
124	291	20.000440403656	158
124	340	20.001097672092	158
123	291	20.000440403656	158
123	340	20.001097672092	158
122	291	20.000440403656	158
122	340	20.001097672092	158
152	325	20.000754403656	158
151	325	20.000754403656	158
150	325	20.000754403656	158
121	291	20.000440403656	158
121	340	20.001097672092	158
144	312	20.000602403656	158
[...]
60	736	42.4	0
60	736	42.5	0
60	736	42.6	0
60	736	42.7	0
60	736	42.8	0
60	736	42.9	0
60	736	43	0
60	736	43.1	0
60	736	43.2	0
60	736	43.3	0
60	736	43.4	0
60	736	43.5	0
60	736	43.6	0
60	736	43.7	0
60	736	43.8	0
60	736	43.9	0
60	736	44	0
60	736	44.1	0
60	736	44.2	0
60	736	44.3	0
60	736	44.4	0
60	736	44.5	0
60	736	44.6	0
60	736	44.7	0
60	736	44.8	0
60	736	44.9	0
60	736	45	0
60	736	45.1	0
60	736	45.2	0
60	736	45.3	0
60	736	45.4	0
60	736	45.5	0
60	736	45.6	0
60	736	45.7	0
60	736	45.8	0
60	736	45.9	0
60	736	46	0
60	736	46.1	0
60	736	46.2	0
60	736	46.3	0
60	736	46.4	0
60	736	46.5	0
60	736	46.6	0
60	736	46.7	0
60	736	46.8	0
60	736	46.9	0
60	736	47	0
60	736	47.1	0
60	736	47.2	0
60	736	47.3	0
60	736	47.4	0
60	736	47.5	0
60	736	47.6	0
60	736	47.7	0
60	736	47.8	0
60	736	47.9	0
60	736	48	0
60	736	48.1	0
60	736	48.2	0
60	736	48.3	0
60	736	48.4	0
60	736	48.5	0
60	736	48.6	0
60	736	48.7	0
60	736	48.8	0
60	736	48.9	0
60	736	49	0
60	736	49.1	0
60	736	49.2	0
60	736	49.3	0
60	736	49.4	0
60	736	49.5	0
60	736	49.6	0
60	736	49.7	0
60	736	49.8	0
60	736	49.9	0
60	736	50	0
60	736	50.1	0
60	736	50.2	0
60	736	50.3	0
60	736	50.4	0
60	736	50.5	0
60	736	50.6	0
60	736	50.7	0
60	736	50.8	0
60	736	50.9	0
60	736	51	0
60	736	51.1	0
60	736	51.2	0
60	736	51.3	0
60	736	51.4	0
60	736	51.5	0
60	736	51.6	0
60	736	51.7	0
60	736	51.8	0
60	736	51.9	0
60	736	52	0
60	736	52.1	0
60	736	52.2	0
60	736	52.3	0
60	736	52.4	0
60	736	52.5	0
60	736	52.6	0
60	736	52.7	0
60	736	52.8	0
60	736	52.9	0
60	736	53	0
60	736	53.1	0
60	736	53.2	0
60	736	53.3	0
60	736	53.4	0
60	736	53.5	0
60	736	53.6	0
60	736	53.7	0
60	736	53.8	0
60	736	53.9	0
60	736	54	0
60	736	54.1	0
60	736	54.2	0
60	736	54.3	0
60	736	54.4	0
60	736	54.5	0
60	736	54.6	0
60	736	54.7	0
60	736	54.8	0
60	736	54.9	0
60	736	55	0
60	736	55.1	0
60	736	55.2	0
60	736	55.3	0
60	736	55.4	0
60	736	55.5	0
60	736	55.6	0
60	736	55.7	0
60	736	55.8	0
60	736	55.9	0
60	736	56	0
60	736	56.1	0
60	736	56.2	0
60	736	56.3	0
60	736	56.4	0
60	736	56.5	0
60	736	56.6	0
60	736	56.7	0
60	736	56.8	0
60	736	56.9	0
60	736	57	0
60	736	57.1	0
60	736	57.2	0
60	736	57.3	0
60	736	57.4	0
59	232	20	1264
59	232	20	1264
58	232	20	0
58	232	20	0
50	220	0.2	0
50	220	0.3	0
50	220	0.4	0
50	220	0.5	0
50	220	0.6	0
50	220	0.7	0
50	220	0.8	0
50	220	0.9	0
50	220	1	0
50	220	1.1	0
50	220	1.2	0
50	220	1.3	0
50	220	1.4	0
50	220	1.5	0
50	220	1.6	0
50	220	1.7	0
50	220	1.8	0
50	220	1.9	0
50	220	2	0
50	220	2.1	0
50	220	2.2	0
50	220	2.3	0
50	220	2.4	0
50	220	2.5	0
50	220	2.6	0
50	220	2.7	0
50	220	2.8	0
50	220	2.9	0
50	220	3	0
50	220	3.1	0
50	220	3.2	0
50	220	3.3	0
50	220	3.4	0
50	220	3.5	0
50	220	3.6	0
50	220	3.7	0
50	220	3.8	0
50	220	3.9	0
50	220	4	0
50	220	4.1	0
50	220	4.2	0
50	220	4.3	0
50	220	4.4	0
50	220	4.5	0
50	220	4.6	0
50	220	4.7	0
50	220	4.8	0
50	220	4.9	0
50	220	5	0
50	220	5.1	0
50	220	5.2	0
50	220	5.3	0
50	220	5.4	0
50	220	5.5	0
50	220	5.6	0
50	220	5.7	0
50	220	5.8	0
50	220	5.9	0
50	220	6	0
50	220	6.1	0
50	220	6.2	0
50	220	6.3	0
50	220	6.4	0
50	220	6.5	0
50	220	6.6	0
50	220	6.7	0
50	220	6.8	0
50	220	6.9	0
50	220	7	0
50	220	7.1	0
50	220	7.2	0
50	220	7.3	0
50	220	7.4	0
50	220	7.5	0
50	220	7.6	0
50	220	7.7	0
50	220	7.8	0
50	220	7.9	0
50	220	8	0
50	220	8.1	0
50	220	8.2	0
50	220	8.3	0
50	220	8.4	0
50	220	8.5	0
50	220	8.6	0
50	220	8.7	0
50	220	8.8	0
50	220	8.9	0
50	220	9	0
50	220	9.1	0
50	220	9.2	0
50	220	9.3	0
50	220	9.4	0
50	220	9.5	0
50	220	9.6	0
50	220	9.7	0
50	220	9.8	0
50	220	9.9	0
50	220	10	0
50	220	10.1	0
50	220	10.2	0
50	220	10.3	0
50	220	10.4	0
50	220	10.5	0
50	220	10.6	0
50	220	10.7	0
50	220	10.8	0
50	220	10.9	0
50	220	11	0
50	220	11.1	0
50	220	11.2	0
50	220	11.3	0
50	220	11.4	0
50	220	11.5	0
50	220	11.6	0
50	220	11.7	0
50	220	11.8	0
50	220	11.9	0
50	220	12	0
50	220	12.1	0
50	220	12.2	0
50	220	12.3	0
50	220	12.4	0
50	220	12.5	0
50	220	12.6	0
50	220	12.7	0
50	220	12.8	0
50	220	12.9	0
50	220	13	0
50	220	13.1	0
50	220	13.2	0
50	220	13.3	0
50	220	13.4	0
50	220	13.5	0
50	220	13.6	0
50	220	13.7	0
50	220	13.8	0
50	220	13.9	0
50	220	14	0
50	220	14.1	0
50	220	14.2	0
50	220	14.3	0
50	220	14.4	0
50	220	14.5	0
50	220	14.6	0
50	220	14.7	0
50	220	14.8	0
50	220	14.9	0
50	220	15	0
50	220	15.1	0
50	220	15.2	0
50	220	15.3	0
50	220	15.4	0
50	220	15.5	0
50	220	15.6	0
50	220	15.7	0
50	220	15.8	0
50	220	15.9	0
50	220	16	0
50	220	16.1	0
50	220	16.2	0
50	220	16.3	0
50	220	16.4	0
50	220	16.5	0
50	220	16.6	0
50	220	16.7	0
50	220	16.8	0
50	220	16.9	0
50	220	17	0
50	220	17.1	0
50	220	17.2	0
50	220	17.3	0
50	220	17.4	0
50	220	17.5	0
50	220	17.6	0
50	220	17.7	0
50	220	17.8	0
50	220	17.9	0
50	220	18	0
50	220	18.1	0
50	220	18.2	0
50	220	18.3	0
50	220	18.4	0
50	220	18.5	0
50	220	18.6	0
50	220	18.7	0
50	220	18.8	0
50	220	18.9	0
50	220	19	0
50	220	19.1	0
50	220	19.2	0
50	220	19.3	0
50	220	19.4	0
50	220	19.5	0
50	220	19.6	0
50	220	19.7	0
50	220	19.8	0
50	220	19.9	0
50	220	20	0
50	736	20.1	25280
50	736	20.2	0
50	736	20.3	0
50	736	20.4	0
50	736	20.5	0
50	736	20.6	0
50	736	20.7	0
50	736	20.8	0
50	736	20.9	0
50	736	21	0
50	736	21.1	0
50	736	21.2	0
50	736	21.3	0
50	736	21.4	0
50	736	21.5	0
50	736	21.6	0
50	736	21.7	0
50	736	21.8	0
50	736	21.9	0
50	736	22	0
50	736	22.1	0
50	736	22.2	0
50	736	22.3	0
50	736	22.4	0
50	736	22.5	0
50	736	22.6	0
50	736	22.7	0
50	736	22.8	0
50	736	22.9	0
50	736	23	0
50	736	23.1	0
50	736	23.2	0
50	736	23.3	0
50	736	23.4	0
50	736	23.5	0
50	736	23.6	0
50	736	23.7	0
50	736	23.8	0
50	736	23.9	0
50	736	24	0
50	736	24.1	0
50	736	24.2	0
50	736	24.3	0
50	736	24.4	0
50	736	24.5	0
50	736	24.6	0
50	736	24.7	0
50	736	24.8	0
50	736	24.9	0
50	736	25	0
50	736	25.1	0
50	736	25.2	0
50	736	25.3	0
50	736	25.4	0
50	736	25.5	0
50	736	25.6	0
50	736	25.7	0
50	736	25.8	0
50	736	25.9	0
50	736	26	0
50	736	26.1	0
50	736	26.2	0
50	736	26.3	0
50	736	26.4	0
50	736	26.5	0
50	736	26.6	0
50	736	26.7	0
50	736	26.8	0
50	736	26.9	0
50	736	27	0
50	736	27.1	0
50	736	27.2	0
50	736	27.3	0
50	736	27.4	0
50	736	27.5	0
50	736	27.6	0
50	736	27.7	0
50	736	27.8	0
50	736	27.9	0
50	736	28	0
50	736	28.1	0
50	736	28.2	0
50	736	28.3	0
50	736	28.4	0
50	736	28.5	0
50	736	28.6	0
50	736	28.7	0
50	736	28.8	0
50	736	28.9	0
50	736	29	0
50	736	29.1	0
50	736	29.2	0
50	736	29.3	0
50	736	29.4	0
50	736	29.5	0
50	736	29.6	0
50	736	29.7	0
50	736	29.8	0
50	736	29.9	0
50	736	30	0
50	736	30.1	0
50	736	30.2	0
50	736	30.3	0
50	736	30.4	0
50	736	30.5	0
50	736	30.6	0
50	736	30.7	0
50	736	30.8	0
50	736	30.9	0
50	736	31	0
50	736	31.1	0
50	736	31.2	0
50	736	31.3	0
50	736	31.4	0
50	736	31.5	0
50	736	31.6	0
50	736	31.7	0
50	736	31.8	0
50	736	31.9	0
50	736	32	0
50	736	32.1	0
50	736	32.2	0
50	736	32.3	0
50	736	32.4	0
50	736	32.5	0
50	736	32.6	0
50	736	32.7	0
50	736	32.8	0
50	736	32.9	0
50	736	33	0
50	736	33.1	0
50	736	33.2	0
50	736	33.3	0
50	736	33.4	0
50	736	33.5	0
50	736	33.6	0
50	736	33.7	0
50	736	33.8	0
50	736	33.9	0
50	736	34	0
50	736	34.1	0
50	736	34.2	0
50	736	34.3	0
50	736	34.4	0
50	736	34.5	0
50	736	34.6	0
50	736	34.7	0
50	736	34.8	0
50	736	34.9	0
50	736	35	0
50	736	35.1	0
50	736	35.2	0
50	736	35.3	0
50	736	35.4	0
50	736	35.5	0
50	736	35.6	0
50	736	35.7	0
50	736	35.8	0
50	736	35.9	0
50	736	36	0
50	736	36.1	0
50	736	36.2	0
50	736	36.3	0
50	736	36.4	0
50	736	36.5	0
50	736	36.6	0
50	736	36.7	0
50	736	36.8	0
50	736	36.9	0
50	736	37	0
50	736	37.1	0
50	736	37.2	0
50	736	37.3	0
50	736	37.4	0
50	736	37.5	0
50	736	37.6	0
50	736	37.7	0
50	736	37.8	0
50	736	37.9	0
50	736	38	0
50	736	38.1	0
50	736	38.2	0
50	736	38.3	0
50	736	38.4	0
50	736	38.5	0
50	736	38.6	0
50	736	38.7	0
50	736	38.8	0
50	736	38.9	0
50	736	39	0
50	736	39.1	0
50	736	39.2	0
50	736	39.3	0
50	736	39.4	0
50	736	39.5	0
50	736	39.6	0
50	736	39.7	0
50	736	39.8	0
50	736	39.9	0
50	736	40	0
50	736	40.1	0
50	736	40.2	0
50	736	40.3	0
50	736	40.4	0
50	736	40.5	0
50	736	40.6	0
50	736	40.7	0
50	736	40.8	0
50	736	40.9	0
50	736	41	0
50	736	41.1	0
50	736	41.2	0
50	736	41.3	0
50	736	41.4	0
50	736	41.5	0
50	736	41.6	0
50	736	41.7	0
50	736	41.8	0
50	736	41.9	0
50	736	42	0
50	736	42.1	0
50	736	42.2	0
50	736	42.3	0
50	736	42.4	0
50	736	42.5	0
50	736	42.6	0
50	736	42.7	0
50	736	42.8	0
50	736	42.9	0
50	736	43	0
50	736	43.1	0
50	736	43.2	0
50	736	43.3	0
50	736	43.4	0
50	736	43.5	0
50	736	43.6	0
50	736	43.7	0
50	736	43.8	0
50	736	43.9	0
50	736	44	0
50	736	44.1	0
50	736	44.2	0
50	736	44.3	0
50	736	44.4	0
50	736	44.5	0
50	736	44.6	0
50	736	44.7	0
50	736	44.8	0
50	736	44.9	0
50	736	45	0
50	736	45.1	0
50	736	45.2	0
50	736	45.3	0
50	736	45.4	0
50	736	45.5	0
50	736	45.6	0
50	736	45.7	0
50	736	45.8	0
50	736	45.9	0
50	736	46	0
50	736	46.1	0
50	736	46.2	0
50	736	46.3	0
50	736	46.4	0
50	736	46.5	0
50	736	46.6	0
50	736	46.7	0
50	736	46.8	0
50	736	46.9	0
50	736	47	0
50	736	47.1	0
50	736	47.2	0
50	736	47.3	0
50	736	47.4	0
50	736	47.5	0
50	736	47.6	0
50	736	47.7	0
50	736	47.8	0
50	736	47.9	0
50	736	48	0
50	736	48.1	0
50	736	48.2	0
50	736	48.3	0
50	736	48.4	0
50	736	48.5	0
50	736	48.6	0
50	736	48.7	0
50	736	48.8	0
50	736	48.9	0
50	736	49	0
50	736	49.1	0
50	736	49.2	0
50	736	49.3	0
50	736	49.4	0
50	736	49.5	0
50	736	49.6	0
50	736	49.7	0
50	736	49.8	0
50	736	49.9	0
50	736	50	0
50	736	50.1	0
50	736	50.2	0
50	736	50.3	0
50	736	50.4	0
50	736	50.5	0
50	736	50.6	0
50	736	50.7	0
50	736	50.8	0
50	736	50.9	0
50	736	51	0
50	736	51.1	0
50	736	51.2	0
50	736	51.3	0
50	736	51.4	0
50	736	51.5	0
50	736	51.6	0
50	736	51.7	0
50	736	51.8	0
50	736	51.9	0
50	736	52	0
50	736	52.1	0
50	736	52.2	0
50	736	52.3	0
50	736	52.4	0
50	736	52.5	0
50	736	52.6	0
50	736	52.7	0
50	736	52.8	0
50	736	52.9	0
50	736	53	0
50	736	53.1	0
50	736	53.2	0
50	736	53.3	0
50	736	53.4	0
50	736	53.5	0
50	736	53.6	0
50	736	53.7	0
50	736	53.8	0
50	736	53.9	0
50	736	54	0
50	736	54.1	0
50	736	54.2	0
50	736	54.3	0
50	736	54.4	0
50	736	54.5	0
50	736	54.6	0
50	736	54.7	0
50	736	54.8	0
50	736	54.9	0
50	736	55	0
50	736	55.1	0
50	736	55.2	0
50	736	55.3	0
50	736	55.4	0
50	736	55.5	0
50	736	55.6	0
50	736	55.7	0
50	736	55.8	0
50	736	55.9	0
50	736	56	0
50	736	56.1	0
50	736	56.2	0
50	736	56.3	0
50	736	56.4	0
50	736	56.5	0
50	736	56.6	0
50	736	56.7	0
50	736	56.8	0
50	736	56.9	0
50	736	57	0
50	736	57.1	0
50	736	57.2	0
50	736	57.3	0
50	736	57.4	0
49	220	20	1264
49	228	20	1264
51	220	20	1
51	228	20	2
51	232	20	1
51	232	20	0
52	220	20	1264
52	228	20	2528
52	232	20	1264
52	232	20	0
67	238	20.000152	0.000152
67	318	20.00066326187	0.00066326187
1	2	0.1	0
1	2	0.1	0
1	232	20	1
1	232	20	2
1	238	20.000152	1
1	318	20.00066326187	0
2	2	0.1	0
2	2	0.1	0
2	220	20	1
2	231	20	0
2	239	20.000152	1
2	273	20.00028826187	0
2	278	20.00044026187	1
2	304	20.00051126187	0
53	220	20	4
53	238	20.000152	7
9	2	0.1	0
9	2	0.1	0
9	220	20	0
9	220	20	2
9	231	20	2
9	231	20	0
9	233	20	0
9	233	20	0
9	238	20.000152	0
9	238	20.000152	1
9	239	20.000152	1
9	239	20.000152	2
9	273	20.00028826187	2
9	273	20.00028826187	1
9	278	20.00044026187	1
9	278	20.00044026187	2
9	304	20.00051126187	2
9	304	20.00051126187	0
9	306	20.00051126187	0
9	306	20.00051126187	0
9	319	20.00066326187	0
9	319	20.00066326187	0
9	336	20.000945754402	0
9	336	20.000945754402	0
9	351	20.001097754402	0
9	351	20.001097754402	0
10	2	0.1	15
61	232	20	12000000
61	305	20.00051126187	12000000
0	2	0.1	0
0	2	0.1	0
0	232	20	1
0	238	20.000152	0
0	305	20.00051126187	1
0	318	20.00066326187	0
119	279	20.00044026187	158
119	352	20.001097754402	158
118	279	20.00044026187	158
118	352	20.001097754402	158
117	279	20.00044026187	158
117	352	20.001097754402	158
66	238	20.000152	158
66	318	20.00066326187	158
65	238	20.000152	158
65	318	20.00066326187	158
64	238	20.000152	158
64	318	20.00066326187	158
116	279	20.00044026187	158
116	352	20.001097754402	158
62	232	20	158
62	305	20.00051126187	158
48	220	20	130
48	228	20	130
120	279	20.00044026187	130
120	352	20.001097754402	130
7	2	0.1	3
6	2	0.1	0
6	2	0.1	0
6	2	0.1	2
6	233	20	3
6	239	20.000152	2
6	306	20.00051126187	3
6	319	20.00066326187	2
8	2	0.1	1
8	233	20	0
8	239	20.000152	1
8	273	20.00028826187	3
8	278	20.00044026187	1
8	306	20.00051126187	0
8	319	20.00066326187	1
8	336	20.000945754402	3
8	351	20.001097754402	1
63	233	20	1
63	234	20	2
63	238	20.000152	1
63	239	20.000152	0
63	306	20.00051126187	1
63	307	20.00051126187	2
63	318	20.00066326187	1
63	319	20.00066326187	0
57	222	20	0
57	230	20	0
57	283	20.00044026187	0.00044026187
57	356	20.001097754402	0.001097754402
56	222	0.2	0
56	222	0.3	0
56	222	0.4	0
56	222	0.5	0
56	222	0.6	0
56	222	0.7	0
56	222	0.8	0
56	222	0.9	0
56	222	1	0
56	222	1.1	0
56	222	1.2	0
56	222	1.3	0
56	222	1.4	0
56	222	1.5	0
56	222	1.6	0
56	222	1.7	0
56	222	1.8	0
56	222	1.9	0
56	222	2	0
56	222	2.1	0
56	222	2.2	0
56	222	2.3	0
56	222	2.4	0
56	222	2.5	0
56	222	2.6	0
56	222	2.7	0
56	222	2.8	0
56	222	2.9	0
56	222	3	0
56	222	3.1	0
56	222	3.2	0
56	222	3.3	0
56	222	3.4	0
56	222	3.5	0
56	222	3.6	0
56	222	3.7	0
56	222	3.8	0
56	222	3.9	0
56	222	4	0
56	222	4.1	0
56	222	4.2	0
56	222	4.3	0
56	222	4.4	0
56	222	4.5	0
56	222	4.6	0
56	222	4.7	0
56	222	4.8	0
56	222	4.9	0
56	222	5	0
56	222	5.1	0
56	222	5.2	0
56	222	5.3	0
56	222	5.4	0
56	222	5.5	0
56	222	5.6	0
56	222	5.7	0
56	222	5.8	0
56	222	5.9	0
56	222	6	0
56	222	6.1	0
56	222	6.2	0
56	222	6.3	0
56	222	6.4	0
56	222	6.5	0
56	222	6.6	0
56	222	6.7	0
56	222	6.8	0
56	222	6.9	0
56	222	7	0
56	222	7.1	0
56	222	7.2	0
56	222	7.3	0
56	222	7.4	0
56	222	7.5	0
56	222	7.6	0
56	222	7.7	0
56	222	7.8	0
56	222	7.9	0
56	222	8	0
56	222	8.1	0
56	222	8.2	0
56	222	8.3	0
56	222	8.4	0
56	222	8.5	0
56	222	8.6	0
56	222	8.7	0
56	222	8.8	0
56	222	8.9	0
56	222	9	0
56	222	9.1	0
56	222	9.2	0
56	222	9.3	0
56	222	9.4	0
56	222	9.5	0
56	222	9.6	0
56	222	9.7	0
56	222	9.8	0
56	222	9.9	0
56	222	10	0
56	222	10.1	0
56	222	10.2	0
56	222	10.3	0
56	222	10.4	0
56	222	10.5	0
56	222	10.6	0
56	222	10.7	0
56	222	10.8	0
56	222	10.9	0
56	222	11	0
56	222	11.1	0
56	222	11.2	0
56	222	11.3	0
56	222	11.4	0
56	222	11.5	0
56	222	11.6	0
56	222	11.7	0
56	222	11.8	0
56	222	11.9	0
56	222	12	0
56	222	12.1	0
56	222	12.2	0
56	222	12.3	0
56	222	12.4	0
56	222	12.5	0
56	222	12.6	0
56	222	12.7	0
56	222	12.8	0
56	222	12.9	0
56	222	13	0
56	222	13.1	0
56	222	13.2	0
56	222	13.3	0
56	222	13.4	0
56	222	13.5	0
56	222	13.6	0
56	222	13.7	0
56	222	13.8	0
56	222	13.9	0
56	222	14	0
56	222	14.1	0
56	222	14.2	0
56	222	14.3	0
56	222	14.4	0
56	222	14.5	0
56	222	14.6	0
56	222	14.7	0
56	222	14.8	0
56	222	14.9	0
56	222	15	0
56	222	15.1	0
56	222	15.2	0
56	222	15.3	0
56	222	15.4	0
56	222	15.5	0
56	222	15.6	0
56	222	15.7	0
56	222	15.8	0
56	222	15.9	0
56	222	16	0
56	222	16.1	0
56	222	16.2	0
56	222	16.3	0
56	222	16.4	0
56	222	16.5	0
56	222	16.6	0
56	222	16.7	0
56	222	16.8	0
56	222	16.9	0
56	222	17	0
56	222	17.1	0
56	222	17.2	0
56	222	17.3	0
56	222	17.4	0
56	222	17.5	0
56	222	17.6	0
56	222	17.7	0
56	222	17.8	0
56	222	17.9	0
56	222	18	0
56	222	18.1	0
56	222	18.2	0
56	222	18.3	0
56	222	18.4	0
56	222	18.5	0
56	222	18.6	0
56	222	18.7	0
56	222	18.8	0
56	222	18.9	0
56	222	19	0
56	222	19.1	0
56	222	19.2	0
56	222	19.3	0
56	222	19.4	0
56	222	19.5	0
56	222	19.6	0
56	222	19.7	0
56	222	19.8	0
56	222	19.9	0
56	222	20	0
56	736	20.1	32000
56	736	20.2	0
56	736	20.3	0
56	736	20.4	0
56	736	20.5	0
56	736	20.6	0
56	736	20.7	0
56	736	20.8	0
56	736	20.9	0
56	736	21	0
56	736	21.1	0
56	736	21.2	0
56	736	21.3	0
56	736	21.4	0
56	736	21.5	0
56	736	21.6	0
56	736	21.7	0
56	736	21.8	0
56	736	21.9	0
56	736	22	0
56	736	22.1	0
56	736	22.2	0
56	736	22.3	0
56	736	22.4	0
56	736	22.5	0
56	736	22.6	0
56	736	22.7	0
56	736	22.8	0
56	736	22.9	0
56	736	23	0
56	736	23.1	0
56	736	23.2	0
56	736	23.3	0
56	736	23.4	0
56	736	23.5	0
56	736	23.6	0
56	736	23.7	0
56	736	23.8	0
56	736	23.9	0
56	736	24	0
56	736	24.1	0
56	736	24.2	0
56	736	24.3	0
56	736	24.4	0
56	736	24.5	0
56	736	24.6	0
56	736	24.7	0
56	736	24.8	0
56	736	24.9	0
56	736	25	0
56	736	25.1	0
56	736	25.2	0
56	736	25.3	0
56	736	25.4	0
56	736	25.5	0
56	736	25.6	0
56	736	25.7	0
56	736	25.8	0
56	736	25.9	0
56	736	26	0
56	736	26.1	0
56	736	26.2	0
56	736	26.3	0
56	736	26.4	0
56	736	26.5	0
56	736	26.6	0
56	736	26.7	0
56	736	26.8	0
56	736	26.9	0
56	736	27	0
56	736	27.1	0
56	736	27.2	0
56	736	27.3	0
56	736	27.4	0
56	736	27.5	0
56	736	27.6	0
56	736	27.7	0
56	736	27.8	0
56	736	27.9	0
56	736	28	0
56	736	28.1	0
56	736	28.2	0
56	736	28.3	0
56	736	28.4	0
56	736	28.5	0
56	736	28.6	0
56	736	28.7	0
56	736	28.8	0
56	736	28.9	0
56	736	29	0
56	736	29.1	0
56	736	29.2	0
56	736	29.3	0
56	736	29.4	0
56	736	29.5	0
56	736	29.6	0
56	736	29.7	0
56	736	29.8	0
56	736	29.9	0
56	736	30	0
56	736	30.1	0
56	736	30.2	0
56	736	30.3	0
56	736	30.4	0
56	736	30.5	0
56	736	30.6	0
56	736	30.7	0
56	736	30.8	0
56	736	30.9	0
56	736	31	0
56	736	31.1	0
56	736	31.2	0
56	736	31.3	0
56	736	31.4	0
56	736	31.5	0
56	736	31.6	0
56	736	31.7	0
56	736	31.8	0
56	736	31.9	0
56	736	32	0
56	736	32.1	0
56	736	32.2	0
56	736	32.3	0
56	736	32.4	0
56	736	32.5	0
56	736	32.6	0
56	736	32.7	0
56	736	32.8	0
56	736	32.9	0
56	736	33	0
56	736	33.1	0
56	736	33.2	0
56	736	33.3	0
56	736	33.4	0
56	736	33.5	0
56	736	33.6	0
56	736	33.7	0
56	736	33.8	0
56	736	33.9	0
56	736	34	0
56	736	34.1	0
56	736	34.2	0
56	736	34.3	0
56	736	34.4	0
56	736	34.5	0
56	736	34.6	0
56	736	34.7	0
56	736	34.8	0
56	736	34.9	0
56	736	35	0
56	736	35.1	0
56	736	35.2	0
56	736	35.3	0
56	736	35.4	0
56	736	35.5	0
56	736	35.6	0
56	736	35.7	0
56	736	35.8	0
56	736	35.9	0
56	736	36	0
56	736	36.1	0
56	736	36.2	0
56	736	36.3	0
56	736	36.4	0
56	736	36.5	0
56	736	36.6	0
56	736	36.7	0
56	736	36.8	0
56	736	36.9	0
56	736	37	0
56	736	37.1	0
56	736	37.2	0
56	736	37.3	0
56	736	37.4	0
56	736	37.5	0
56	736	37.6	0
56	736	37.7	0
56	736	37.8	0
56	736	37.9	0
56	736	38	0
56	736	38.1	0
56	736	38.2	0
56	736	38.3	0
56	736	38.4	0
56	736	38.5	0
56	736	38.6	0
56	736	38.7	0
56	736	38.8	0
56	736	38.9	0
56	736	39	0
56	736	39.1	0
56	736	39.2	0
56	736	39.3	0
56	736	39.4	0
56	736	39.5	0
56	736	39.6	0
56	736	39.7	0
56	736	39.8	0
56	736	39.9	0
56	736	40	0
56	736	40.1	0
56	736	40.2	0
56	736	40.3	0
56	736	40.4	0
56	736	40.5	0
56	736	40.6	0
56	736	40.7	0
56	736	40.8	0
56	736	40.9	0
56	736	41	0
56	736	41.1	0
56	736	41.2	0
56	736	41.3	0
56	736	41.4	0
56	736	41.5	0
56	736	41.6	0
56	736	41.7	0
56	736	41.8	0
56	736	41.9	0
56	736	42	0
56	736	42.1	0
56	736	42.2	0
56	736	42.3	0
56	736	42.4	0
56	736	42.5	0
56	736	42.6	0
56	736	42.7	0
56	736	42.8	0
56	736	42.9	0
56	736	43	0
56	736	43.1	0
56	736	43.2	0
56	736	43.3	0
56	736	43.4	0
56	736	43.5	0
56	736	43.6	0
56	736	43.7	0
56	736	43.8	0
56	736	43.9	0
56	736	44	0
56	736	44.1	0
56	736	44.2	0
56	736	44.3	0
56	736	44.4	0
56	736	44.5	0
56	736	44.6	0
56	736	44.7	0
56	736	44.8	0
56	736	44.9	0
56	736	45	0
56	736	45.1	0
56	736	45.2	0
56	736	45.3	0
56	736	45.4	0
56	736	45.5	0
56	736	45.6	0
56	736	45.7	0
56	736	45.8	0
56	736	45.9	0
56	736	46	0
56	736	46.1	0
56	736	46.2	0
56	736	46.3	0
56	736	46.4	0
56	736	46.5	0
56	736	46.6	0
56	736	46.7	0
56	736	46.8	0
56	736	46.9	0
56	736	47	0
56	736	47.1	0
56	736	47.2	0
56	736	47.3	0
56	736	47.4	0
56	736	47.5	0
56	736	47.6	0
56	736	47.7	0
56	736	47.8	0
56	736	47.9	0
56	736	48	0
56	736	48.1	0
56	736	48.2	0
56	736	48.3	0
56	736	48.4	0
56	736	48.5	0
56	736	48.6	0
56	736	48.7	0
56	736	48.8	0
56	736	48.9	0
56	736	49	0
56	736	49.1	0
56	736	49.2	0
56	736	49.3	0
56	736	49.4	0
56	736	49.5	0
56	736	49.6	0
56	736	49.7	0
56	736	49.8	0
56	736	49.9	0
56	736	50	0
56	736	50.1	0
56	736	50.2	0
56	736	50.3	0
56	736	50.4	0
56	736	50.5	0
56	736	50.6	0
56	736	50.7	0
56	736	50.8	0
56	736	50.9	0
56	736	51	0
56	736	51.1	0
56	736	51.2	0
56	736	51.3	0
56	736	51.4	0
56	736	51.5	0
56	736	51.6	0
56	736	51.7	0
56	736	51.8	0
56	736	51.9	0
56	736	52	0
56	736	52.1	0
56	736	52.2	0
56	736	52.3	0
56	736	52.4	0
56	736	52.5	0
56	736	52.6	0
56	736	52.7	0
56	736	52.8	0
56	736	52.9	0
56	736	53	0
56	736	53.1	0
56	736	53.2	0
56	736	53.3	0
56	736	53.4	0
56	736	53.5	0
56	736	53.6	0
56	736	53.7	0
56	736	53.8	0
56	736	53.9	0
56	736	54	0
56	736	54.1	0
56	736	54.2	0
56	736	54.3	0
56	736	54.4	0
56	736	54.5	0
56	736	54.6	0
56	736	54.7	0
56	736	54.8	0
56	736	54.9	0
56	736	55	0
56	736	55.1	0
56	736	55.2	0
56	736	55.3	0
56	736	55.4	0
56	736	55.5	0
56	736	55.6	0
56	736	55.7	0
56	736	55.8	0
56	736	55.9	0
56	736	56	0
56	736	56.1	0
56	736	56.2	0
56	736	56.3	0
56	736	56.4	0
56	736	56.5	0
56	736	56.6	0
56	736	56.7	0
56	736	56.8	0
56	736	56.9	0
56	736	57	0
56	736	57.1	0
56	736	57.2	0
56	736	57.3	0
56	736	57.4	0
55	222	20	100
55	230	20	100
55	283	20.00044026187	100
55	356	20.001097754402	100
44	213	20	100
44	222	20	100

