<<<<<<< HEAD
file 3113599 1715298697                                         
version 3
run canvas-0-20240509-19:50:33-7234
attr configname canvas
attr datetime 20240509-19:50:33
attr datetimef 20240509-195033
=======
file 108176 1713993637                                          
version 3
run canvas-0-20240424-23:19:19-13441
attr configname canvas
attr datetime 20240424-23:19:19
attr datetimef 20240424-231919
>>>>>>> cb40c32b5605b182eb28a7bfd6f1ddcc854b381a
attr experiment canvas
attr inifile omnetpp.ini
attr iterationvars ""
attr iterationvarsd ""
attr iterationvarsf ""
attr measurement ""
attr network Scenario
<<<<<<< HEAD
attr processid 7234
=======
attr processid 13441
>>>>>>> cb40c32b5605b182eb28a7bfd6f1ddcc854b381a
attr repetition 0
attr replication #0
attr resultdir results
attr runnumber 0
attr seedset 0
config image-path ../../images:../../../inet4.4/images:../../../veins-veins-5.2/images
config extends plain
config description "Enable enhanced 2D visualization"
config *.visualizer.*.obstacleLossVisualizer.displayIntersections true
config *.visualizer.*.obstacleLossVisualizer.displayFaceNormalVectors true
config *.visualizer.*.obstacleLossVisualizer.intersectionLineColor "\"yellow\""
config *.visualizer.*.mediumVisualizer.signalPropagationAnimationSpeed 500/3e8
config *.visualizer.*.mediumVisualizer.signalTransmissionAnimationSpeed 50000/3e8
config *.visualizer.*.mediumVisualizer.displaySignals true
config *.visualizer.canvasVisualizer.mediumVisualizer.displaySignalDepartures false
config *.visualizer.canvasVisualizer.mediumVisualizer.displaySignalArrivals false
config *.visualizer.*.physicalLinkVisualizer.displayLinks true
config *.visualizer.osgVisualizer.typename ""
config network Scenario
config sim-time-limit 60s
config debug-on-errors true
config cmdenv-express-mode true
config image-path ../../../../images
<<<<<<< HEAD
=======
config *.*.isMalicious true
>>>>>>> cb40c32b5605b182eb28a7bfd6f1ddcc854b381a
config *.node[*].numApps 1
config *.node[*].app[0].typename org.car2x.veins.subprojects.veins_inet.VeinsInetSampleApplication
config *.node[*].app[0].interface "\"wlan0\""
config *.node[*].wlan[0].opMode "\"p\""
config *.node[*].wlan[0].radio.typename Ieee80211DimensionalRadio
config *.node[*].wlan[0].radio.bandName "\"5.9 GHz\""
config *.node[*].wlan[0].radio.channelNumber 3
config *.node[*].wlan[0].radio.transmitter.power 20mW
config *.node[*].wlan[0].radio.bandwidth "10 MHz"
config *.node[*].wlan[*].radio.antenna.mobility.typename AttachedMobility
config *.node[*].wlan[*].radio.antenna.mobility.mobilityModule "\"^.^.^.^.mobility\""
config *.node[*].wlan[*].radio.antenna.mobility.offsetX -2.5m
config *.node[*].wlan[*].radio.antenna.mobility.offsetZ 1.5m
config *.node[*].wlan[*].radio.antenna.mobility.constraintAreaMinX 0m
config *.node[*].wlan[*].radio.antenna.mobility.constraintAreaMaxX 0m
config *.node[*].wlan[*].radio.antenna.mobility.constraintAreaMinY 0m
config *.node[*].wlan[*].radio.antenna.mobility.constraintAreaMaxY 0m
config *.node[*].wlan[*].radio.antenna.mobility.constraintAreaMinZ 0m
config *.node[*].wlan[*].radio.antenna.mobility.constraintAreaMaxZ 0m
config *.node[*].ipv4.configurator.typename HostAutoConfigurator
config *.node[*].ipv4.configurator.interfaces "\"wlan0\""
config *.node[*].ipv4.configurator.mcastGroups "\"224.0.0.1\""
config *.node[*].mobility.typename VeinsInetMobility
config *.manager.updateInterval 0.1s
config *.manager.host "\"localhost\""
config *.manager.port 9999
config *.manager.autoShutdown true
config *.manager.launchConfig "xmldoc(\"square.launchd.xml\")"
config *.manager.moduleType "\"org.car2x.veins.subprojects.veins_inet.VeinsInetCar\""
config *.physicalEnvironment.config "xmldoc(\"obstacles.xml\")"
config *.radioMedium.obstacleLoss.typename IdealObstacleLoss
config **.vector-recording true

vector 0 Scenario.node[0].wlan[0].mac.dcf frameSequenceActive:vector ETV
attr autoWarmupFilter false
attr interpolationmode sample-hold
attr recordingmode vector
attr source warmup(count(frameSequenceStarted)-count(frameSequenceFinished))
attr title "frame sequence active"
vector 1 Scenario.node[0].wlan[0].mac.dcf.channelAccess.inProgressFrames queueLength:vector ETV
attr autoWarmupFilter false
attr interpolationmode sample-hold
attr recordingmode vector
attr source "warmup(count(packetEnqueued) - count(packetDequeued))"
attr title "queue length"
vector 2 Scenario.node[0].wlan[0].mac.dcf.channelAccess.contention backoffActive:vector ETV
attr autoWarmupFilter false
attr interpolationmode sample-hold
attr recordingmode vector
attr source warmup(count(backoffStarted)-count(backoffStopped))
attr title "backoff active"
vector 3 Scenario.node[0].udp passedUpPk:vector(count) ETV
attr interpolationmode none
attr recordingmode vector(count)
attr source packetSentToUpper
attr title "packets passed up, count"
vector 4 Scenario.node[0].udp droppedPkWrongPort:vector(count) ETV
attr interpolationmode none
attr recordingmode vector(count)
attr source packetDropReasonIsNoPortFound(packetDropped)
attr title "packets dropped (wrong port), count"
vector 5 Scenario.node[0].udp droppedPkBadChecksum:vector(count) ETV
attr interpolationmode none
attr recordingmode vector(count)
attr source packetDropReasonIsIncorrectlyReceived(packetDropped)
attr title "packets dropped (checksum error), count"
vector 6 Scenario.node[0].wlan[0].radio radioMode:vector ETV
attr interpolationmode sample-hold
attr recordingmode vector
attr source radioModeChanged
attr title "Radio mode"
vector 7 Scenario.node[0].wlan[0].radio radioChannel:vector ETV
attr interpolationmode sample-hold
attr recordingmode vector
attr source radioChannelChanged
attr title "Radio channel"
vector 8 Scenario.node[0].wlan[0].radio receptionState:vector ETV
attr interpolationmode sample-hold
attr recordingmode vector
attr source receptionStateChanged
attr title "Radio reception state"
vector 9 Scenario.node[0].wlan[0].mac.dcf.channelAccess.contention stateChanged:vector ETV
attr enum IDLE,DEFER,IFS_AND_BACKOFF
attr interpolationmode none
attr recordingmode vector
attr title "contention state changed"
attr type enum
vector 10 Scenario.node[0].wlan[0].mac.dcf.recoveryProcedure contentionWindowChanged:vector ETV
attr interpolationmode sample-hold
attr recordingmode vector
attr title "contention window"
vector 11 Scenario.node[1].wlan[0].mac.dcf frameSequenceActive:vector ETV
attr autoWarmupFilter false
attr interpolationmode sample-hold
attr recordingmode vector
attr source warmup(count(frameSequenceStarted)-count(frameSequenceFinished))
attr title "frame sequence active"
vector 12 Scenario.node[1].wlan[0].mac.dcf.channelAccess.inProgressFrames queueLength:vector ETV
attr autoWarmupFilter false
attr interpolationmode sample-hold
attr recordingmode vector
attr source "warmup(count(packetEnqueued) - count(packetDequeued))"
attr title "queue length"
vector 13 Scenario.node[1].wlan[0].mac.dcf.channelAccess.contention backoffActive:vector ETV
attr autoWarmupFilter false
attr interpolationmode sample-hold
attr recordingmode vector
attr source warmup(count(backoffStarted)-count(backoffStopped))
attr title "backoff active"
vector 14 Scenario.node[1].udp passedUpPk:vector(count) ETV
attr interpolationmode none
attr recordingmode vector(count)
attr source packetSentToUpper
attr title "packets passed up, count"
vector 15 Scenario.node[1].udp droppedPkWrongPort:vector(count) ETV
attr interpolationmode none
attr recordingmode vector(count)
attr source packetDropReasonIsNoPortFound(packetDropped)
attr title "packets dropped (wrong port), count"
vector 16 Scenario.node[1].udp droppedPkBadChecksum:vector(count) ETV
attr interpolationmode none
attr recordingmode vector(count)
attr source packetDropReasonIsIncorrectlyReceived(packetDropped)
attr title "packets dropped (checksum error), count"
vector 17 Scenario.node[1].wlan[0].radio radioMode:vector ETV
attr interpolationmode sample-hold
attr recordingmode vector
attr source radioModeChanged
attr title "Radio mode"
vector 18 Scenario.node[1].wlan[0].radio radioChannel:vector ETV
attr interpolationmode sample-hold
attr recordingmode vector
attr source radioChannelChanged
attr title "Radio channel"
vector 19 Scenario.node[1].wlan[0].radio receptionState:vector ETV
attr interpolationmode sample-hold
attr recordingmode vector
attr source receptionStateChanged
attr title "Radio reception state"
vector 20 Scenario.node[1].wlan[0].mac.dcf.channelAccess.contention stateChanged:vector ETV
attr enum IDLE,DEFER,IFS_AND_BACKOFF
attr interpolationmode none
attr recordingmode vector
attr title "contention state changed"
attr type enum
vector 21 Scenario.node[1].wlan[0].mac.dcf.recoveryProcedure contentionWindowChanged:vector ETV
attr interpolationmode sample-hold
attr recordingmode vector
attr title "contention window"
vector 22 Scenario.node[2].wlan[0].mac.dcf frameSequenceActive:vector ETV
attr autoWarmupFilter false
attr interpolationmode sample-hold
attr recordingmode vector
attr source warmup(count(frameSequenceStarted)-count(frameSequenceFinished))
attr title "frame sequence active"
vector 23 Scenario.node[2].wlan[0].mac.dcf.channelAccess.inProgressFrames queueLength:vector ETV
attr autoWarmupFilter false
attr interpolationmode sample-hold
attr recordingmode vector
attr source "warmup(count(packetEnqueued) - count(packetDequeued))"
attr title "queue length"
vector 24 Scenario.node[2].wlan[0].mac.dcf.channelAccess.contention backoffActive:vector ETV
attr autoWarmupFilter false
attr interpolationmode sample-hold
attr recordingmode vector
attr source warmup(count(backoffStarted)-count(backoffStopped))
attr title "backoff active"
vector 25 Scenario.node[2].udp passedUpPk:vector(count) ETV
attr interpolationmode none
attr recordingmode vector(count)
attr source packetSentToUpper
attr title "packets passed up, count"
vector 26 Scenario.node[2].udp droppedPkWrongPort:vector(count) ETV
attr interpolationmode none
attr recordingmode vector(count)
attr source packetDropReasonIsNoPortFound(packetDropped)
attr title "packets dropped (wrong port), count"
vector 27 Scenario.node[2].udp droppedPkBadChecksum:vector(count) ETV
attr interpolationmode none
attr recordingmode vector(count)
attr source packetDropReasonIsIncorrectlyReceived(packetDropped)
attr title "packets dropped (checksum error), count"
vector 28 Scenario.node[2].wlan[0].radio radioMode:vector ETV
attr interpolationmode sample-hold
attr recordingmode vector
attr source radioModeChanged
attr title "Radio mode"
vector 29 Scenario.node[2].wlan[0].radio radioChannel:vector ETV
attr interpolationmode sample-hold
attr recordingmode vector
attr source radioChannelChanged
attr title "Radio channel"
vector 30 Scenario.node[2].wlan[0].radio receptionState:vector ETV
attr interpolationmode sample-hold
attr recordingmode vector
attr source receptionStateChanged
attr title "Radio reception state"
vector 31 Scenario.node[2].wlan[0].mac.dcf.channelAccess.contention stateChanged:vector ETV
attr enum IDLE,DEFER,IFS_AND_BACKOFF
attr interpolationmode none
attr recordingmode vector
attr title "contention state changed"
attr type enum
vector 32 Scenario.node[2].wlan[0].mac.dcf.recoveryProcedure contentionWindowChanged:vector ETV
attr interpolationmode sample-hold
attr recordingmode vector
attr title "contention window"
vector 33 Scenario.node[3].wlan[0].mac.dcf frameSequenceActive:vector ETV
attr autoWarmupFilter false
attr interpolationmode sample-hold
attr recordingmode vector
attr source warmup(count(frameSequenceStarted)-count(frameSequenceFinished))
attr title "frame sequence active"
vector 34 Scenario.node[3].wlan[0].mac.dcf.channelAccess.inProgressFrames queueLength:vector ETV
attr autoWarmupFilter false
attr interpolationmode sample-hold
attr recordingmode vector
attr source "warmup(count(packetEnqueued) - count(packetDequeued))"
attr title "queue length"
vector 35 Scenario.node[3].wlan[0].mac.dcf.channelAccess.contention backoffActive:vector ETV
attr autoWarmupFilter false
attr interpolationmode sample-hold
attr recordingmode vector
attr source warmup(count(backoffStarted)-count(backoffStopped))
attr title "backoff active"
vector 36 Scenario.node[3].udp passedUpPk:vector(count) ETV
attr interpolationmode none
attr recordingmode vector(count)
attr source packetSentToUpper
attr title "packets passed up, count"
vector 37 Scenario.node[3].udp droppedPkWrongPort:vector(count) ETV
attr interpolationmode none
attr recordingmode vector(count)
attr source packetDropReasonIsNoPortFound(packetDropped)
attr title "packets dropped (wrong port), count"
vector 38 Scenario.node[3].udp droppedPkBadChecksum:vector(count) ETV
attr interpolationmode none
attr recordingmode vector(count)
attr source packetDropReasonIsIncorrectlyReceived(packetDropped)
attr title "packets dropped (checksum error), count"
vector 39 Scenario.node[3].wlan[0].radio radioMode:vector ETV
attr interpolationmode sample-hold
attr recordingmode vector
attr source radioModeChanged
attr title "Radio mode"
vector 40 Scenario.node[3].wlan[0].radio radioChannel:vector ETV
attr interpolationmode sample-hold
attr recordingmode vector
attr source radioChannelChanged
attr title "Radio channel"
vector 41 Scenario.node[3].wlan[0].radio receptionState:vector ETV
attr interpolationmode sample-hold
attr recordingmode vector
attr source receptionStateChanged
attr title "Radio reception state"
vector 42 Scenario.node[3].wlan[0].mac.dcf.channelAccess.contention stateChanged:vector ETV
attr enum IDLE,DEFER,IFS_AND_BACKOFF
attr interpolationmode none
attr recordingmode vector
attr title "contention state changed"
attr type enum
vector 43 Scenario.node[3].wlan[0].mac.dcf.recoveryProcedure contentionWindowChanged:vector ETV
attr interpolationmode sample-hold
attr recordingmode vector
attr title "contention window"
vector 44 Scenario.node[0].app[0] packetSent:vector(packetBytes) ETV
attr interpolationmode none
attr recordingmode vector(packetBytes)
attr source packetSent
attr title "packets sent, packetBytes"
vector 45 Scenario.node[0].udp packetSent:vector(packetBytes) ETV
attr interpolationmode none
attr recordingmode vector(packetBytes)
attr source packetSent
attr title "packets sent, packetBytes"
vector 46 Scenario.node[0].lo[0].lo rcvdPkFromHl:vector(packetBytes) ETV
attr interpolationmode none
attr recordingmode vector(packetBytes)
attr source packetReceivedFromUpper
attr title "packets received from higher layer, packetBytes"
vector 47 Scenario.node[0].lo[0].lo passedUpPk:vector(packetBytes) ETV
attr interpolationmode none
attr recordingmode vector(packetBytes)
attr source packetSentToUpper
attr title "packets passed to higher layer, packetBytes"
vector 48 Scenario.node[0].wlan[0].mac packetReceivedFromUpper:vector(packetBytes) ETV
attr interpolationmode none
attr recordingmode vector(packetBytes)
attr title "packets received from upper layer, packetBytes"
vector 49 Scenario.node[0].wlan[0].mac.dcf.channelAccess.pendingQueue incomingPacketLengths:vector ETV
attr interpolationmode none
attr recordingmode vector
attr source packetLength(packetPushStarted)
attr title "incoming packet lengths"
attr unit b
vector 50 Scenario.node[0].wlan[0].mac.dcf.channelAccess.pendingQueue incomingDataRate:vector ETV
attr interpolationmode linear
attr recordingmode vector
attr source throughput(packetPushStarted)
attr title "incoming datarate"
attr unit bps
vector 51 Scenario.node[0].wlan[0].mac.dcf.channelAccess.pendingQueue queueLength:vector ETV
attr autoWarmupFilter false
attr interpolationmode sample-hold
attr recordingmode vector
attr source "warmup(atomic(constant0(packetPushEnded) + count(packetPushStarted) - count(packetPulled) - count(packetRemoved) - count(packetDropped)))"
attr title "queue length"
attr unit pk
vector 52 Scenario.node[0].wlan[0].mac.dcf.channelAccess.pendingQueue queueBitLength:vector ETV
attr autoWarmupFilter false
attr interpolationmode sample-hold
attr recordingmode vector
attr source "warmup(atomic(constant0(packetPushEnded) + sum(packetLength(packetPushStarted)) - sum(packetLength(packetPulled)) - sum(packetLength(packetRemoved)) - sum(packetLength(packetDropped))))"
attr title "queue bit length"
attr unit b
vector 53 Scenario.node[0].wlan[0].mac.dcf.channelAccess.contention backoffPeriodGenerated:vector ETV
attr interpolationmode none
attr recordingmode vector
attr title "backoff periods"
vector 54 Scenario.node[0].udp packetReceived:vector(packetBytes) ETV
attr interpolationmode none
attr recordingmode vector(packetBytes)
attr source packetReceived
attr title "packets received, packetBytes"
vector 55 Scenario.node[0].app[0] packetReceived:vector(packetBytes) ETV
attr interpolationmode none
attr recordingmode vector(packetBytes)
attr source packetReceived
attr title "packets received, packetBytes"
vector 56 Scenario.node[0].app[0] throughput:vector ETV
attr recordingmode vector
attr source throughput(packetReceived)
attr title throughput
attr unit bps
vector 57 Scenario.node[0].app[0] rcvdPkLifetime:vector ETV
attr interpolationmode none
attr recordingmode vector
attr source dataAge(packetReceived)
attr title "received packet lifetime"
attr unit s
vector 58 Scenario.node[0].wlan[0].mac.dcf.channelAccess.pendingQueue queueingTime:vector ETV
attr interpolationmode none
attr recordingmode vector
attr source queueingTime(packetPulled)
attr title "queueing times"
attr unit s
vector 59 Scenario.node[0].wlan[0].mac.dcf.channelAccess.pendingQueue outgoingPacketLengths:vector ETV
attr interpolationmode none
attr recordingmode vector
attr source packetLength(packetPulled)
attr title "outgoing packet lengths"
attr unit b
vector 60 Scenario.node[0].wlan[0].mac.dcf.channelAccess.pendingQueue outgoingDataRate:vector ETV
attr interpolationmode linear
attr recordingmode vector
attr source throughput(packetPulled)
attr title "outgoing datarate"
attr unit bps
vector 61 Scenario.node[0].wlan[0].mac.dcf datarateSelected:vector ETV
attr interpolationmode none
attr recordingmode vector
attr title "datarates selected"
vector 62 Scenario.node[0].wlan[0].mac packetSentToLower:vector(packetBytes) ETV
attr interpolationmode none
attr recordingmode vector(packetBytes)
attr title "packets sent to lower layer, packetBytes"
vector 63 Scenario.node[0].wlan[0].radio transmissionState:vector ETV
attr interpolationmode sample-hold
attr recordingmode vector
attr source transmissionStateChanged
attr title "Radio transmission state"
vector 64 Scenario.node[0].wlan[0].mac.dcf packetSentToPeer:vector(packetBytes) ETV
attr interpolationmode none
attr recordingmode vector(packetBytes)
attr title "packets sent, packetBytes"
vector 65 Scenario.node[0].wlan[0].mac.dcf packetSentToPeerMulticast:vector(packetBytes) ETV
attr interpolationmode none
attr recordingmode vector(packetBytes)
attr source ieee80211Multicast(packetSentToPeer)
attr title "packets sent: multicast, packetBytes"
vector 66 Scenario.node[0].wlan[0].mac.dcf packetSentToPeerWithoutRetry:vector(packetBytes) ETV
attr interpolationmode none
attr recordingmode vector(packetBytes)
attr source ieee80211NotRetry(packetSentToPeer)
attr title "packets sent: without retry, packetBytes"
vector 67 Scenario.node[0].wlan[0].mac.dcf.channelAccess.inProgressFrames queueingTime:vector ETV
attr interpolationmode none
attr recordingmode vector
attr source queueingTime(packetDequeued)
attr title "queueing times"
vector 68 Scenario.node[1].wlan[0].mac packetReceivedFromLower:vector(packetBytes) ETV
attr interpolationmode none
attr recordingmode vector(packetBytes)
attr title "packets received from lower layer, packetBytes"
vector 69 Scenario.node[1].wlan[0].mac.dcf packetReceivedFromPeer:vector(packetBytes) ETV
attr interpolationmode none
attr recordingmode vector(packetBytes)
attr title "packets received, packetBytes"
vector 70 Scenario.node[1].wlan[0].mac.dcf packetReceivedFromPeerMulticast:vector(packetBytes) ETV
attr interpolationmode none
attr recordingmode vector(packetBytes)
attr source ieee80211Multicast(packetReceivedFromPeer)
attr title "packets received: multicast, packetBytes"
vector 71 Scenario.node[1].wlan[0].mac.dcf packetReceivedFromPeerWithoutRetry:vector(packetBytes) ETV
attr interpolationmode none
attr recordingmode vector(packetBytes)
attr source ieee80211NotRetry(packetReceivedFromPeer)
attr title "packets received: without retry, packetBytes"
vector 72 Scenario.node[1].wlan[0].mac packetSentToUpper:vector(packetBytes) ETV
attr interpolationmode none
attr recordingmode vector(packetBytes)
attr title "packets sent to upper layer, packetBytes"
vector 73 Scenario.node[1].udp packetReceived:vector(packetBytes) ETV
attr interpolationmode none
attr recordingmode vector(packetBytes)
attr source packetReceived
attr title "packets received, packetBytes"
vector 74 Scenario.node[1].app[0] packetReceived:vector(packetBytes) ETV
attr interpolationmode none
attr recordingmode vector(packetBytes)
attr source packetReceived
attr title "packets received, packetBytes"
vector 75 Scenario.node[1].app[0] throughput:vector ETV
attr recordingmode vector
attr source throughput(packetReceived)
attr title throughput
attr unit bps
vector 76 Scenario.node[1].app[0] rcvdPkLifetime:vector ETV
attr interpolationmode none
attr recordingmode vector
attr source dataAge(packetReceived)
attr title "received packet lifetime"
attr unit s
<<<<<<< HEAD
vector 77 Scenario.node[1].app[0] packetSent:vector(packetBytes) ETV
attr interpolationmode none
attr recordingmode vector(packetBytes)
attr source packetSent
attr title "packets sent, packetBytes"
vector 78 Scenario.node[1].udp packetSent:vector(packetBytes) ETV
attr interpolationmode none
attr recordingmode vector(packetBytes)
attr source packetSent
attr title "packets sent, packetBytes"
vector 79 Scenario.node[1].lo[0].lo rcvdPkFromHl:vector(packetBytes) ETV
attr interpolationmode none
attr recordingmode vector(packetBytes)
attr source packetReceivedFromUpper
attr title "packets received from higher layer, packetBytes"
vector 80 Scenario.node[1].lo[0].lo passedUpPk:vector(packetBytes) ETV
attr interpolationmode none
attr recordingmode vector(packetBytes)
attr source packetSentToUpper
attr title "packets passed to higher layer, packetBytes"
vector 81 Scenario.node[1].wlan[0].mac packetReceivedFromUpper:vector(packetBytes) ETV
attr interpolationmode none
attr recordingmode vector(packetBytes)
attr title "packets received from upper layer, packetBytes"
vector 82 Scenario.node[1].wlan[0].mac.dcf.channelAccess.pendingQueue incomingPacketLengths:vector ETV
attr interpolationmode none
attr recordingmode vector
attr source packetLength(packetPushStarted)
attr title "incoming packet lengths"
attr unit b
vector 83 Scenario.node[1].wlan[0].mac.dcf.channelAccess.pendingQueue incomingDataRate:vector ETV
attr interpolationmode linear
attr recordingmode vector
attr source throughput(packetPushStarted)
attr title "incoming datarate"
attr unit bps
vector 84 Scenario.node[1].wlan[0].mac.dcf.channelAccess.pendingQueue queueLength:vector ETV
attr autoWarmupFilter false
attr interpolationmode sample-hold
attr recordingmode vector
attr source "warmup(atomic(constant0(packetPushEnded) + count(packetPushStarted) - count(packetPulled) - count(packetRemoved) - count(packetDropped)))"
attr title "queue length"
attr unit pk
vector 85 Scenario.node[1].wlan[0].mac.dcf.channelAccess.pendingQueue queueBitLength:vector ETV
attr autoWarmupFilter false
attr interpolationmode sample-hold
attr recordingmode vector
attr source "warmup(atomic(constant0(packetPushEnded) + sum(packetLength(packetPushStarted)) - sum(packetLength(packetPulled)) - sum(packetLength(packetRemoved)) - sum(packetLength(packetDropped))))"
attr title "queue bit length"
attr unit b
vector 86 Scenario.node[1].wlan[0].mac.dcf.channelAccess.contention backoffPeriodGenerated:vector ETV
attr interpolationmode none
attr recordingmode vector
attr title "backoff periods"
vector 87 Scenario.node[0].wlan[0].mac.dcf.channelAccess.pendingQueue droppedPacketLengthsQueueOverflow:vector ETV
attr interpolationmode none
attr recordingmode vector
attr source packetLength(packetDropReasonIsQueueOverflow(packetDropped))
attr title "dropped packet lengths: queue overflow"
attr unit b
vector 88 Scenario.node[0].wlan[0].mac.dcf packetDrop:vector(packetBytes) ETV
attr interpolationmode none
attr recordingmode vector(packetBytes)
attr source packetDropped
attr title "packet drops, packetBytes"
vector 89 Scenario.node[0].wlan[0].mac.dcf packetDropQueueOverflow:vector(packetBytes) ETV
attr interpolationmode none
attr recordingmode vector(packetBytes)
attr source packetDropReasonIsQueueOverflow(packetDropped)
attr title "packet drops: queue overflow, packetBytes"
vector 90 Scenario.node[0].wlan[0].mac packetDrop:vector(packetBytes) ETV
attr interpolationmode none
attr recordingmode vector(packetBytes)
attr source packetDropped
attr title "packet drops, packetBytes"
vector 91 Scenario.node[0].wlan[0].mac packetDropQueueOverflow:vector(packetBytes) ETV
attr interpolationmode none
attr recordingmode vector(packetBytes)
attr source packetDropReasonIsQueueOverflow(packetDropped)
attr title "packet drops: queue overflow, packetBytes"
vector 92 Scenario.node[1].wlan[0].mac.dcf.channelAccess.pendingQueue droppedPacketLengthsQueueOverflow:vector ETV
attr interpolationmode none
attr recordingmode vector
attr source packetLength(packetDropReasonIsQueueOverflow(packetDropped))
attr title "dropped packet lengths: queue overflow"
attr unit b
vector 93 Scenario.node[1].wlan[0].mac.dcf packetDrop:vector(packetBytes) ETV
attr interpolationmode none
attr recordingmode vector(packetBytes)
attr source packetDropped
attr title "packet drops, packetBytes"
vector 94 Scenario.node[1].wlan[0].mac.dcf packetDropQueueOverflow:vector(packetBytes) ETV
attr interpolationmode none
attr recordingmode vector(packetBytes)
attr source packetDropReasonIsQueueOverflow(packetDropped)
attr title "packet drops: queue overflow, packetBytes"
vector 95 Scenario.node[1].wlan[0].mac packetDrop:vector(packetBytes) ETV
attr interpolationmode none
attr recordingmode vector(packetBytes)
attr source packetDropped
attr title "packet drops, packetBytes"
vector 96 Scenario.node[1].wlan[0].mac packetDropQueueOverflow:vector(packetBytes) ETV
attr interpolationmode none
attr recordingmode vector(packetBytes)
attr source packetDropReasonIsQueueOverflow(packetDropped)
attr title "packet drops: queue overflow, packetBytes"
0	25770 49 2 233 0.1 20.000152 4 0 1 1 1
1	25819 49 2 233 0.1 20.000152 4 0 1 1 1
2	25868 53 2 265 0.1 21 5 0 1 2 2
3	25921 83887 2 96496 0.1 21 5349 0 5348 14303226 51000536174
4	109808 10 2 2 0.1 0.1 1 0 0 0 0
5	109818 10 2 2 0.1 0.1 1 0 0 0 0
6	109828 59 2 234 0.1 20.000152 5 0 3 7 17
7	109887 10 2 2 0.1 0.1 1 3 3 3 9
8	109897 39 2 234 0.1 20.000152 3 0 1 2 2
9	109936 144 2 265 0.1 21 12 0 2 6 12
10	110080 12 2 2 0.1 0.1 1 15 15 15 225
11	110092 24 55 55 5.1 5.1 2 0 0 0 0
12	110116 24 55 55 5.1 5.1 2 0 0 0 0
13	110140 36 55 267 5.1 21 3 0 1 1 1
14	110176 89250 55 96497 5.1 21 5349 0 5348 14303226 51000536174
15	199426 12 55 55 5.1 5.1 1 0 0 0 0
16	199438 12 55 55 5.1 5.1 1 0 0 0 0
17	199450 36 55 55 5.1 5.1 3 0 2 2 4
18	199486 12 55 55 5.1 5.1 1 3 3 3 9
19	199498 62 55 235 5.1 20.000152222718 3 1 3 5 11
20	199560 148 55 267 5.1 21 8 0 2 2 4
21	199708 13 55 55 5.1 5.1 1 15 15 15 225
22	199721 28 108 108 10.1 10.1 2 0 0 0 0
23	199749 28 108 108 10.1 10.1 2 0 0 0 0
24	199777 28 108 108 10.1 10.1 2 0 0 0 0
25	199805 14 108 108 10.1 10.1 1 0 0 0 0
26	199819 14 108 108 10.1 10.1 1 0 0 0 0
27	199833 14 108 108 10.1 10.1 1 0 0 0 0
28	199847 42 108 108 10.1 10.1 3 0 2 2 4
29	199889 14 108 108 10.1 10.1 1 3 3 3 9
30	199903 14 108 108 10.1 10.1 1 1 1 1 1
31	199917 28 108 108 10.1 10.1 2 0 0 0 0
32	199945 15 108 108 10.1 10.1 1 15 15 15 225
33	199960 28 161 161 15.1 15.1 2 0 0 0 0
34	199988 28 161 161 15.1 15.1 2 0 0 0 0
35	200016 28 161 161 15.1 15.1 2 0 0 0 0
36	200044 14 161 161 15.1 15.1 1 0 0 0 0
37	200058 14 161 161 15.1 15.1 1 0 0 0 0
38	200072 14 161 161 15.1 15.1 1 0 0 0 0
39	200086 42 161 161 15.1 15.1 3 0 2 2 4
40	200128 14 161 161 15.1 15.1 1 3 3 3 9
41	200142 14 161 161 15.1 15.1 1 1 1 1 1
42	200156 28 161 161 15.1 15.1 2 0 0 0 0
43	200184 15 161 161 15.1 15.1 1 15 15 15 225
44	200199 90346 213 96500 20 21 5349 100 1200 6417700 7701130000
45	290545 90346 218 96502 20 21 5349 108 1208 6460492 7804155536
46	380891 90346 220 96506 20 21 5349 128 1228 6567472 8064714816
47	471237 90346 220 96506 20 21 5349 128 1228 6567472 8064714816
48	561583 90348 223 96511 20 21 5349 130 1230 6578170 8091006100
49	651931 95697 223 96511 20 21 5349 1264 10064 53823536 541668943104
50	747628 3527 223 95665 0.2 21 262 0 12640 12640 159769600
51	751155 84902 223 96511 20 21 5350 0 100 529851 52818351
52	836057 106297 223 96511 20 21 5350 0 1006400 5332411664 5.3496588335593e+15
53	942354 24 223 265 20 21 2 4 7 11 65
54	942378 90331 224 96496 20 21 5348 108 1208 6459284 7802696272
55	1032709 90331 225 96498 20 21 5348 100 1200 6416500 7699690000
56	1123040 3526 225 95670 0.2 21 262 0 8000 8000 64000000
57	1126566 74288 225 96498 20 21 5348 0 0 0 0
58	1200854 12 227 227 20 20 1 0 0 0 0
59	1200866 15 227 227 20 20 1 1264 1264 1264 1597696
60	1200881 2648 227 227 0.2 20 199 0 0 0 0
61	1203529 19 227 227 20 20 1 12000000 12000000 12000000 1.44e+14
62	1203548 14 227 227 20 20 1 158 158 158 24964
63	1203562 62 228 234 20 20.000152 4 0 2 4 6
64	1203624 21 233 233 20.000152 20.000152 1 158 158 158 24964
65	1203645 21 233 233 20.000152 20.000152 1 158 158 158 24964
66	1203666 21 233 233 20.000152 20.000152 1 158 158 158 24964
67	1203687 26 233 233 20.000152 20.000152 1 0.000152 0.000152 0.000152 2.3104e-08
68	1203713 27 236 236 20.000152222718 20.000152222718 1 158 158 158 24964
69	1203740 27 236 236 20.000152222718 20.000152222718 1 158 158 158 24964
70	1203767 27 236 236 20.000152222718 20.000152222718 1 158 158 158 24964
71	1203794 27 236 236 20.000152222718 20.000152222718 1 158 158 158 24964
72	1203821 27 236 236 20.000152222718 20.000152222718 1 130 130 130 16900
73	1203848 90344 239 96497 20.000152222718 21 5348 108 1208 6459284 7802696272
74	1294192 90344 240 96499 20.000152222718 21 5348 100 1200 6416500 7699690000
75	1384536 2886 240 95671 5.2 21 212 0 8000 8000 64000000
76	1387422 74314 240 96499 20.000152222718 21 5348 0 0.000152222718 0.000152222718 2.3171755875308e-08
77	1461736 90332 254 96501 21 21 5348 1200 1200 6417600 7701120000
78	1552068 90332 257 96503 21 21 5348 1208 1208 6460384 7804143872
79	1642400 90334 262 96508 21 21 5348 1228 1228 6567344 8064698432
80	1732734 90334 262 96508 21 21 5348 1228 1228 6567344 8064698432
81	1823068 90317 267 96495 21 21 5347 1230 1230 6576810 8089476300
82	1913385 95664 267 96495 21 21 5347 10064 10064 53812208 541566061312
83	2009049 2883 267 95667 5.2 21 212 0 0 0 0
84	2011932 84862 267 96495 21 21 5347 1 100 529750 52808350
85	2096794 106250 267 96495 21 21 5347 10064 1006400 5331404000 5.3486459910016e+15
86	2203044 12 267 267 21 21 1 6 6 6 36
87	2203056 94023 2065 96511 21 21 5248 10064 10064 52815872 531538935808
88	2297079 88775 2065 96511 21 21 5248 1258 1258 6601984 8305295872
89	2385854 88775 2065 96511 21 21 5248 1258 1258 6601984 8305295872
90	2474629 88775 2065 96511 21 21 5248 1258 1258 6601984 8305295872
91	2563404 88775 2065 96511 21 21 5248 1258 1258 6601984 8305295872
92	2652179 94005 2067 96495 21 21 5247 10064 10064 52805808 531437651712
93	2746184 88758 2067 96495 21 21 5247 1258 1258 6600726 8303713308
94	2834942 88758 2067 96495 21 21 5247 1258 1258 6600726 8303713308
95	2923700 88758 2067 96495 21 21 5247 1258 1258 6600726 8303713308
96	3012458 88758 2067 96495 21 21 5247 1258 1258 6600726 8303713308
vector 97 Scenario.node[1].wlan[0].mac.dcf.channelAccess.pendingQueue outgoingDataRate:vector ETV
attr interpolationmode linear
attr recordingmode vector
attr source throughput(packetPulled)
attr title "outgoing datarate"
attr unit bps
vector 98 Scenario.node[2].wlan[0].mac.dcf.channelAccess.pendingQueue outgoingDataRate:vector ETV
=======
54	20731 14 224 224 20 20 1 108 108 108 11664
45	20745 14 218 218 20 20 1 108 108 108 11664
3	20759 21 2 224 0.1 20 2 0 1 1 1
4	20780 10 2 2 0.1 0.1 1 0 0 0 0
5	20790 10 2 2 0.1 0.1 1 0 0 0 0
46	20800 14 220 220 20 20 1 128 128 128 16384
47	20814 14 220 220 20 20 1 128 128 128 16384
60	20828 7786 227 631 0.2 57.2 571 0 12640 12640 159769600
59	28614 15 227 227 20 20 1 1264 1264 1264 1597696
58	28629 12 227 227 20 20 1 0 0 0 0
50	28641 7786 223 631 0.2 57.2 571 0 12640 12640 159769600
49	36427 15 223 223 20 20 1 1264 1264 1264 1597696
51	36442 24 223 227 20 20 2 0 1 1 1
52	36466 27 223 227 20 20 2 0 1264 1264 1597696
67	36493 26 233 233 20.000152 20.000152 1 0.000152 0.000152 0.000152 2.3104e-08
1	36519 49 2 233 0.1 20.000152 4 0 1 1 1
2	36568 42 2 226 0.1 20 4 0 1 1 1
53	36610 12 223 223 20 20 1 4 4 4 16
9	36622 122 2 234 0.1 20.000152 10 0 2 4 8
10	36744 12 2 2 0.1 0.1 1 15 15 15 225
61	36756 19 227 227 20 20 1 12000000 12000000 12000000 1.44e+14
0	36775 49 2 233 0.1 20.000152 4 0 1 1 1
66	36824 21 233 233 20.000152 20.000152 1 158 158 158 24964
65	36845 21 233 233 20.000152 20.000152 1 158 158 158 24964
64	36866 21 233 233 20.000152 20.000152 1 158 158 158 24964
62	36887 14 227 227 20 20 1 158 158 158 24964
48	36901 14 223 223 20 20 1 130 130 130 16900
7	36915 10 2 2 0.1 0.1 1 3 3 3 9
6	36925 59 2 234 0.1 20.000152 5 0 3 7 17
8	36984 39 2 234 0.1 20.000152 3 0 1 2 2
63	37023 62 228 234 20 20.000152 4 0 2 4 6
57	37085 12 225 225 20 20 1 0 0 0 0
56	37097 7785 225 631 0.2 57.2 571 0 8000 8000 64000000
55	44882 14 225 225 20 20 1 100 100 100 10000
44	44896 14 213 213 20 20 1 100 100 100 10000
vector 77 Scenario.node[1].wlan[0].mac.dcf.channelAccess.pendingQueue outgoingDataRate:vector ETV
attr interpolationmode linear
attr recordingmode vector
attr source throughput(packetPulled)
attr title "outgoing datarate"
attr unit bps
vector 78 Scenario.node[1].wlan[0].mac.dcf.channelAccess.pendingQueue incomingDataRate:vector ETV
attr interpolationmode linear
attr recordingmode vector
attr source throughput(packetPushStarted)
attr title "incoming datarate"
attr unit bps
73	45387 27 239 239 20.000152182948 20.000152182948 1 108 108 108 11664
14	45414 37 55 239 5.1 20.000152182948 2 0 1 1 1
15	45451 12 55 55 5.1 5.1 1 0 0 0 0
16	45463 12 55 55 5.1 5.1 1 0 0 0 0
77	45475 7294 642 642 5.2 58.3 532 0 0 0 0
78	52769 7294 642 642 5.2 58.3 532 0 0 0 0
12	60063 24 55 55 5.1 5.1 2 0 0 0 0
13	60087 24 55 55 5.1 5.1 2 0 0 0 0
20	60111 124 55 235 5.1 20.000152182948 6 0 0 0 0
21	60235 13 55 55 5.1 5.1 1 15 15 15 225
11	60248 24 55 55 5.1 5.1 2 0 0 0 0
71	60272 27 236 236 20.000152182948 20.000152182948 1 158 158 158 24964
70	60299 27 236 236 20.000152182948 20.000152182948 1 158 158 158 24964
69	60326 27 236 236 20.000152182948 20.000152182948 1 158 158 158 24964
68	60353 27 236 236 20.000152182948 20.000152182948 1 158 158 158 24964
72	60380 27 236 236 20.000152182948 20.000152182948 1 130 130 130 16900
18	60407 12 55 55 5.1 5.1 1 3 3 3 9
17	60419 36 55 55 5.1 5.1 3 0 2 2 4
19	60455 62 55 235 5.1 20.000152182948 3 1 3 5 11
76	60517 38 240 240 20.000152182948 20.000152182948 1 0.000152182948 0.000152182948 0.000152182948 2.3159649661971e-08
75	60555 7297 240 642 5.2 58.3 532 0 8000 8000 64000000
74	67852 27 240 240 20.000152182948 20.000152182948 1 100 100 100 10000
vector 79 Scenario.node[2].wlan[0].mac.dcf.channelAccess.pendingQueue outgoingDataRate:vector ETV
>>>>>>> cb40c32b5605b182eb28a7bfd6f1ddcc854b381a
attr interpolationmode linear
attr recordingmode vector
attr source throughput(packetPulled)
attr title "outgoing datarate"
attr unit bps
<<<<<<< HEAD
vector 99 Scenario.node[2].wlan[0].mac.dcf.channelAccess.pendingQueue incomingDataRate:vector ETV
=======
vector 80 Scenario.node[2].wlan[0].mac.dcf.channelAccess.pendingQueue incomingDataRate:vector ETV
>>>>>>> cb40c32b5605b182eb28a7bfd6f1ddcc854b381a
attr interpolationmode linear
attr recordingmode vector
attr source throughput(packetPushStarted)
attr title "incoming datarate"
attr unit bps
<<<<<<< HEAD
vector 100 Scenario.node[2].app[0] throughput:vector ETV
=======
vector 81 Scenario.node[2].app[0] throughput:vector ETV
>>>>>>> cb40c32b5605b182eb28a7bfd6f1ddcc854b381a
attr recordingmode vector
attr source throughput(packetReceived)
attr title throughput
attr unit bps
<<<<<<< HEAD
vector 101 Scenario.node[3].wlan[0].mac.dcf.channelAccess.pendingQueue outgoingDataRate:vector ETV
=======
25	68513 14 108 108 10.1 10.1 1 0 0 0 0
26	68527 14 108 108 10.1 10.1 1 0 0 0 0
27	68541 14 108 108 10.1 10.1 1 0 0 0 0
79	68555 6680 644 644 10.2 58.5 484 0 0 0 0
80	75235 6680 644 644 10.2 58.5 484 0 0 0 0
23	81915 28 108 108 10.1 10.1 2 0 0 0 0
24	81943 28 108 108 10.1 10.1 2 0 0 0 0
31	81971 28 108 108 10.1 10.1 2 0 0 0 0
32	81999 15 108 108 10.1 10.1 1 15 15 15 225
22	82014 28 108 108 10.1 10.1 2 0 0 0 0
29	82042 14 108 108 10.1 10.1 1 3 3 3 9
28	82056 42 108 108 10.1 10.1 3 0 2 2 4
30	82098 14 108 108 10.1 10.1 1 1 1 1 1
81	82112 6680 644 644 10.2 58.5 484 0 0 0 0
vector 82 Scenario.node[3].wlan[0].mac.dcf.channelAccess.pendingQueue outgoingDataRate:vector ETV
>>>>>>> cb40c32b5605b182eb28a7bfd6f1ddcc854b381a
attr interpolationmode linear
attr recordingmode vector
attr source throughput(packetPulled)
attr title "outgoing datarate"
attr unit bps
<<<<<<< HEAD
vector 102 Scenario.node[3].wlan[0].mac.dcf.channelAccess.pendingQueue incomingDataRate:vector ETV
=======
vector 83 Scenario.node[3].wlan[0].mac.dcf.channelAccess.pendingQueue incomingDataRate:vector ETV
>>>>>>> cb40c32b5605b182eb28a7bfd6f1ddcc854b381a
attr interpolationmode linear
attr recordingmode vector
attr source throughput(packetPushStarted)
attr title "incoming datarate"
attr unit bps
<<<<<<< HEAD
vector 103 Scenario.node[3].app[0] throughput:vector ETV
=======
vector 84 Scenario.node[3].app[0] throughput:vector ETV
>>>>>>> cb40c32b5605b182eb28a7bfd6f1ddcc854b381a
attr recordingmode vector
attr source throughput(packetReceived)
attr title throughput
attr unit bps
<<<<<<< HEAD
60	3102724 162 96512 96512 20.1 21 10 0 12640 12640 159769600
97	3102886 2464 96512 96512 5.2 21 159 0 0 0 0
98	3105350 1722 96512 96512 10.2 21 109 0 0 0 0
99	3107072 1722 96512 96512 10.2 21 109 0 0 0 0
100	3108794 1831 96512 96512 10.2 21 109 0 0 0 0
101	3110625 991 96512 96512 15.2 21 59 0 0 0 0
102	3111616 991 96512 96512 15.2 21 59 0 0 0 0
103	3112607 991 96512 96512 15.2 21 59 0 0 0 0
=======
36	89426 14 161 161 15.1 15.1 1 0 0 0 0
37	89440 14 161 161 15.1 15.1 1 0 0 0 0
38	89454 14 161 161 15.1 15.1 1 0 0 0 0
82	89468 6170 657 657 15.2 59.8 447 0 0 0 0
83	95638 6170 657 657 15.2 59.8 447 0 0 0 0
34	101808 28 161 161 15.1 15.1 2 0 0 0 0
35	101836 28 161 161 15.1 15.1 2 0 0 0 0
42	101864 28 161 161 15.1 15.1 2 0 0 0 0
43	101892 15 161 161 15.1 15.1 1 15 15 15 225
33	101907 28 161 161 15.1 15.1 2 0 0 0 0
40	101935 14 161 161 15.1 15.1 1 3 3 3 9
39	101949 42 161 161 15.1 15.1 3 0 2 2 4
41	101991 14 161 161 15.1 15.1 1 1 1 1 1
84	102005 6170 657 657 15.2 59.8 447 0 0 0 0
>>>>>>> cb40c32b5605b182eb28a7bfd6f1ddcc854b381a

