version 3
run canvas-0-20240509-19:50:33-7234
attr configname canvas
attr datetime 20240509-19:50:33
attr datetimef 20240509-195033
attr experiment canvas
attr inifile omnetpp.ini
attr iterationvars ""
attr iterationvarsd ""
attr iterationvarsf ""
attr measurement ""
attr network Scenario
attr processid 7234
attr repetition 0
attr replication #0
attr resultdir results
attr runnumber 0
attr seedset 0
config image-path ../../images:../../../inet4.4/images:../../../veins-veins-5.2/images
config extends plain
config description "Enable enhanced 2D visualization"
config *.visualizer.*.obstacleLossVisualizer.displayIntersections true
config *.visualizer.*.obstacleLossVisualizer.displayFaceNormalVectors true
config *.visualizer.*.obstacleLossVisualizer.intersectionLineColor "\"yellow\""
config *.visualizer.*.mediumVisualizer.signalPropagationAnimationSpeed 500/3e8
config *.visualizer.*.mediumVisualizer.signalTransmissionAnimationSpeed 50000/3e8
config *.visualizer.*.mediumVisualizer.displaySignals true
config *.visualizer.canvasVisualizer.mediumVisualizer.displaySignalDepartures false
config *.visualizer.canvasVisualizer.mediumVisualizer.displaySignalArrivals false
config *.visualizer.*.physicalLinkVisualizer.displayLinks true
config *.visualizer.osgVisualizer.typename ""
config network Scenario
config sim-time-limit 60s
config debug-on-errors true
config cmdenv-express-mode true
config image-path ../../../../images
config *.node[*].numApps 1
config *.node[*].app[0].typename org.car2x.veins.subprojects.veins_inet.VeinsInetSampleApplication
config *.node[*].app[0].interface "\"wlan0\""
config *.node[*].wlan[0].opMode "\"p\""
config *.node[*].wlan[0].radio.typename Ieee80211DimensionalRadio
config *.node[*].wlan[0].radio.bandName "\"5.9 GHz\""
config *.node[*].wlan[0].radio.channelNumber 3
config *.node[*].wlan[0].radio.transmitter.power 20mW
config *.node[*].wlan[0].radio.bandwidth "10 MHz"
config *.node[*].wlan[*].radio.antenna.mobility.typename AttachedMobility
config *.node[*].wlan[*].radio.antenna.mobility.mobilityModule "\"^.^.^.^.mobility\""
config *.node[*].wlan[*].radio.antenna.mobility.offsetX -2.5m
config *.node[*].wlan[*].radio.antenna.mobility.offsetZ 1.5m
config *.node[*].wlan[*].radio.antenna.mobility.constraintAreaMinX 0m
config *.node[*].wlan[*].radio.antenna.mobility.constraintAreaMaxX 0m
config *.node[*].wlan[*].radio.antenna.mobility.constraintAreaMinY 0m
config *.node[*].wlan[*].radio.antenna.mobility.constraintAreaMaxY 0m
config *.node[*].wlan[*].radio.antenna.mobility.constraintAreaMinZ 0m
config *.node[*].wlan[*].radio.antenna.mobility.constraintAreaMaxZ 0m
config *.node[*].ipv4.configurator.typename HostAutoConfigurator
config *.node[*].ipv4.configurator.interfaces "\"wlan0\""
config *.node[*].ipv4.configurator.mcastGroups "\"224.0.0.1\""
config *.node[*].mobility.typename VeinsInetMobility
config *.manager.updateInterval 0.1s
config *.manager.host "\"localhost\""
config *.manager.port 9999
config *.manager.autoShutdown true
config *.manager.launchConfig "xmldoc(\"square.launchd.xml\")"
config *.manager.moduleType "\"org.car2x.veins.subprojects.veins_inet.VeinsInetCar\""
config *.physicalEnvironment.config "xmldoc(\"obstacles.xml\")"
config *.radioMedium.obstacleLoss.typename IdealObstacleLoss
config **.vector-recording true

vector 0 Scenario.node[0].wlan[0].mac.dcf frameSequenceActive:vector ETV
attr autoWarmupFilter false
attr interpolationmode sample-hold
attr recordingmode vector
attr source warmup(count(frameSequenceStarted)-count(frameSequenceFinished))
attr title "frame sequence active"
vector 1 Scenario.node[0].wlan[0].mac.dcf.channelAccess.inProgressFrames queueLength:vector ETV
attr autoWarmupFilter false
attr interpolationmode sample-hold
attr recordingmode vector
attr source "warmup(count(packetEnqueued) - count(packetDequeued))"
attr title "queue length"
vector 2 Scenario.node[0].wlan[0].mac.dcf.channelAccess.contention backoffActive:vector ETV
attr autoWarmupFilter false
attr interpolationmode sample-hold
attr recordingmode vector
attr source warmup(count(backoffStarted)-count(backoffStopped))
attr title "backoff active"
vector 3 Scenario.node[0].udp passedUpPk:vector(count) ETV
attr interpolationmode none
attr recordingmode vector(count)
attr source packetSentToUpper
attr title "packets passed up, count"
vector 4 Scenario.node[0].udp droppedPkWrongPort:vector(count) ETV
attr interpolationmode none
attr recordingmode vector(count)
attr source packetDropReasonIsNoPortFound(packetDropped)
attr title "packets dropped (wrong port), count"
vector 5 Scenario.node[0].udp droppedPkBadChecksum:vector(count) ETV
attr interpolationmode none
attr recordingmode vector(count)
attr source packetDropReasonIsIncorrectlyReceived(packetDropped)
attr title "packets dropped (checksum error), count"
vector 6 Scenario.node[0].wlan[0].radio radioMode:vector ETV
attr interpolationmode sample-hold
attr recordingmode vector
attr source radioModeChanged
attr title "Radio mode"
vector 7 Scenario.node[0].wlan[0].radio radioChannel:vector ETV
attr interpolationmode sample-hold
attr recordingmode vector
attr source radioChannelChanged
attr title "Radio channel"
vector 8 Scenario.node[0].wlan[0].radio receptionState:vector ETV
attr interpolationmode sample-hold
attr recordingmode vector
attr source receptionStateChanged
attr title "Radio reception state"
vector 9 Scenario.node[0].wlan[0].mac.dcf.channelAccess.contention stateChanged:vector ETV
attr enum IDLE,DEFER,IFS_AND_BACKOFF
attr interpolationmode none
attr recordingmode vector
attr title "contention state changed"
attr type enum
vector 10 Scenario.node[0].wlan[0].mac.dcf.recoveryProcedure contentionWindowChanged:vector ETV
attr interpolationmode sample-hold
attr recordingmode vector
attr title "contention window"
vector 11 Scenario.node[1].wlan[0].mac.dcf frameSequenceActive:vector ETV
attr autoWarmupFilter false
attr interpolationmode sample-hold
attr recordingmode vector
attr source warmup(count(frameSequenceStarted)-count(frameSequenceFinished))
attr title "frame sequence active"
vector 12 Scenario.node[1].wlan[0].mac.dcf.channelAccess.inProgressFrames queueLength:vector ETV
attr autoWarmupFilter false
attr interpolationmode sample-hold
attr recordingmode vector
attr source "warmup(count(packetEnqueued) - count(packetDequeued))"
attr title "queue length"
vector 13 Scenario.node[1].wlan[0].mac.dcf.channelAccess.contention backoffActive:vector ETV
attr autoWarmupFilter false
attr interpolationmode sample-hold
attr recordingmode vector
attr source warmup(count(backoffStarted)-count(backoffStopped))
attr title "backoff active"
vector 14 Scenario.node[1].udp passedUpPk:vector(count) ETV
attr interpolationmode none
attr recordingmode vector(count)
attr source packetSentToUpper
attr title "packets passed up, count"
vector 15 Scenario.node[1].udp droppedPkWrongPort:vector(count) ETV
attr interpolationmode none
attr recordingmode vector(count)
attr source packetDropReasonIsNoPortFound(packetDropped)
attr title "packets dropped (wrong port), count"
vector 16 Scenario.node[1].udp droppedPkBadChecksum:vector(count) ETV
attr interpolationmode none
attr recordingmode vector(count)
attr source packetDropReasonIsIncorrectlyReceived(packetDropped)
attr title "packets dropped (checksum error), count"
vector 17 Scenario.node[1].wlan[0].radio radioMode:vector ETV
attr interpolationmode sample-hold
attr recordingmode vector
attr source radioModeChanged
attr title "Radio mode"
vector 18 Scenario.node[1].wlan[0].radio radioChannel:vector ETV
attr interpolationmode sample-hold
attr recordingmode vector
attr source radioChannelChanged
attr title "Radio channel"
vector 19 Scenario.node[1].wlan[0].radio receptionState:vector ETV
attr interpolationmode sample-hold
attr recordingmode vector
attr source receptionStateChanged
attr title "Radio reception state"
vector 20 Scenario.node[1].wlan[0].mac.dcf.channelAccess.contention stateChanged:vector ETV
attr enum IDLE,DEFER,IFS_AND_BACKOFF
attr interpolationmode none
attr recordingmode vector
attr title "contention state changed"
attr type enum
vector 21 Scenario.node[1].wlan[0].mac.dcf.recoveryProcedure contentionWindowChanged:vector ETV
attr interpolationmode sample-hold
attr recordingmode vector
attr title "contention window"
vector 22 Scenario.node[2].wlan[0].mac.dcf frameSequenceActive:vector ETV
attr autoWarmupFilter false
attr interpolationmode sample-hold
attr recordingmode vector
attr source warmup(count(frameSequenceStarted)-count(frameSequenceFinished))
attr title "frame sequence active"
vector 23 Scenario.node[2].wlan[0].mac.dcf.channelAccess.inProgressFrames queueLength:vector ETV
attr autoWarmupFilter false
attr interpolationmode sample-hold
attr recordingmode vector
attr source "warmup(count(packetEnqueued) - count(packetDequeued))"
attr title "queue length"
vector 24 Scenario.node[2].wlan[0].mac.dcf.channelAccess.contention backoffActive:vector ETV
attr autoWarmupFilter false
attr interpolationmode sample-hold
attr recordingmode vector
attr source warmup(count(backoffStarted)-count(backoffStopped))
attr title "backoff active"
vector 25 Scenario.node[2].udp passedUpPk:vector(count) ETV
attr interpolationmode none
attr recordingmode vector(count)
attr source packetSentToUpper
attr title "packets passed up, count"
vector 26 Scenario.node[2].udp droppedPkWrongPort:vector(count) ETV
attr interpolationmode none
attr recordingmode vector(count)
attr source packetDropReasonIsNoPortFound(packetDropped)
attr title "packets dropped (wrong port), count"
vector 27 Scenario.node[2].udp droppedPkBadChecksum:vector(count) ETV
attr interpolationmode none
attr recordingmode vector(count)
attr source packetDropReasonIsIncorrectlyReceived(packetDropped)
attr title "packets dropped (checksum error), count"
vector 28 Scenario.node[2].wlan[0].radio radioMode:vector ETV
attr interpolationmode sample-hold
attr recordingmode vector
attr source radioModeChanged
attr title "Radio mode"
vector 29 Scenario.node[2].wlan[0].radio radioChannel:vector ETV
attr interpolationmode sample-hold
attr recordingmode vector
attr source radioChannelChanged
attr title "Radio channel"
vector 30 Scenario.node[2].wlan[0].radio receptionState:vector ETV
attr interpolationmode sample-hold
attr recordingmode vector
attr source receptionStateChanged
attr title "Radio reception state"
vector 31 Scenario.node[2].wlan[0].mac.dcf.channelAccess.contention stateChanged:vector ETV
attr enum IDLE,DEFER,IFS_AND_BACKOFF
attr interpolationmode none
attr recordingmode vector
attr title "contention state changed"
attr type enum
vector 32 Scenario.node[2].wlan[0].mac.dcf.recoveryProcedure contentionWindowChanged:vector ETV
attr interpolationmode sample-hold
attr recordingmode vector
attr title "contention window"
vector 33 Scenario.node[3].wlan[0].mac.dcf frameSequenceActive:vector ETV
attr autoWarmupFilter false
attr interpolationmode sample-hold
attr recordingmode vector
attr source warmup(count(frameSequenceStarted)-count(frameSequenceFinished))
attr title "frame sequence active"
vector 34 Scenario.node[3].wlan[0].mac.dcf.channelAccess.inProgressFrames queueLength:vector ETV
attr autoWarmupFilter false
attr interpolationmode sample-hold
attr recordingmode vector
attr source "warmup(count(packetEnqueued) - count(packetDequeued))"
attr title "queue length"
vector 35 Scenario.node[3].wlan[0].mac.dcf.channelAccess.contention backoffActive:vector ETV
attr autoWarmupFilter false
attr interpolationmode sample-hold
attr recordingmode vector
attr source warmup(count(backoffStarted)-count(backoffStopped))
attr title "backoff active"
vector 36 Scenario.node[3].udp passedUpPk:vector(count) ETV
attr interpolationmode none
attr recordingmode vector(count)
attr source packetSentToUpper
attr title "packets passed up, count"
vector 37 Scenario.node[3].udp droppedPkWrongPort:vector(count) ETV
attr interpolationmode none
attr recordingmode vector(count)
attr source packetDropReasonIsNoPortFound(packetDropped)
attr title "packets dropped (wrong port), count"
vector 38 Scenario.node[3].udp droppedPkBadChecksum:vector(count) ETV
attr interpolationmode none
attr recordingmode vector(count)
attr source packetDropReasonIsIncorrectlyReceived(packetDropped)
attr title "packets dropped (checksum error), count"
vector 39 Scenario.node[3].wlan[0].radio radioMode:vector ETV
attr interpolationmode sample-hold
attr recordingmode vector
attr source radioModeChanged
attr title "Radio mode"
vector 40 Scenario.node[3].wlan[0].radio radioChannel:vector ETV
attr interpolationmode sample-hold
attr recordingmode vector
attr source radioChannelChanged
attr title "Radio channel"
vector 41 Scenario.node[3].wlan[0].radio receptionState:vector ETV
attr interpolationmode sample-hold
attr recordingmode vector
attr source receptionStateChanged
attr title "Radio reception state"
vector 42 Scenario.node[3].wlan[0].mac.dcf.channelAccess.contention stateChanged:vector ETV
attr enum IDLE,DEFER,IFS_AND_BACKOFF
attr interpolationmode none
attr recordingmode vector
attr title "contention state changed"
attr type enum
vector 43 Scenario.node[3].wlan[0].mac.dcf.recoveryProcedure contentionWindowChanged:vector ETV
attr interpolationmode sample-hold
attr recordingmode vector
attr title "contention window"
vector 44 Scenario.node[0].app[0] packetSent:vector(packetBytes) ETV
attr interpolationmode none
attr recordingmode vector(packetBytes)
attr source packetSent
attr title "packets sent, packetBytes"
vector 45 Scenario.node[0].udp packetSent:vector(packetBytes) ETV
attr interpolationmode none
attr recordingmode vector(packetBytes)
attr source packetSent
attr title "packets sent, packetBytes"
vector 46 Scenario.node[0].lo[0].lo rcvdPkFromHl:vector(packetBytes) ETV
attr interpolationmode none
attr recordingmode vector(packetBytes)
attr source packetReceivedFromUpper
attr title "packets received from higher layer, packetBytes"
vector 47 Scenario.node[0].lo[0].lo passedUpPk:vector(packetBytes) ETV
attr interpolationmode none
attr recordingmode vector(packetBytes)
attr source packetSentToUpper
attr title "packets passed to higher layer, packetBytes"
vector 48 Scenario.node[0].wlan[0].mac packetReceivedFromUpper:vector(packetBytes) ETV
attr interpolationmode none
attr recordingmode vector(packetBytes)
attr title "packets received from upper layer, packetBytes"
vector 49 Scenario.node[0].wlan[0].mac.dcf.channelAccess.pendingQueue incomingPacketLengths:vector ETV
attr interpolationmode none
attr recordingmode vector
attr source packetLength(packetPushStarted)
attr title "incoming packet lengths"
attr unit b
vector 50 Scenario.node[0].wlan[0].mac.dcf.channelAccess.pendingQueue incomingDataRate:vector ETV
attr interpolationmode linear
attr recordingmode vector
attr source throughput(packetPushStarted)
attr title "incoming datarate"
attr unit bps
vector 51 Scenario.node[0].wlan[0].mac.dcf.channelAccess.pendingQueue queueLength:vector ETV
attr autoWarmupFilter false
attr interpolationmode sample-hold
attr recordingmode vector
attr source "warmup(atomic(constant0(packetPushEnded) + count(packetPushStarted) - count(packetPulled) - count(packetRemoved) - count(packetDropped)))"
attr title "queue length"
attr unit pk
vector 52 Scenario.node[0].wlan[0].mac.dcf.channelAccess.pendingQueue queueBitLength:vector ETV
attr autoWarmupFilter false
attr interpolationmode sample-hold
attr recordingmode vector
attr source "warmup(atomic(constant0(packetPushEnded) + sum(packetLength(packetPushStarted)) - sum(packetLength(packetPulled)) - sum(packetLength(packetRemoved)) - sum(packetLength(packetDropped))))"
attr title "queue bit length"
attr unit b
vector 53 Scenario.node[0].wlan[0].mac.dcf.channelAccess.contention backoffPeriodGenerated:vector ETV
attr interpolationmode none
attr recordingmode vector
attr title "backoff periods"
vector 54 Scenario.node[0].udp packetReceived:vector(packetBytes) ETV
attr interpolationmode none
attr recordingmode vector(packetBytes)
attr source packetReceived
attr title "packets received, packetBytes"
vector 55 Scenario.node[0].app[0] packetReceived:vector(packetBytes) ETV
attr interpolationmode none
attr recordingmode vector(packetBytes)
attr source packetReceived
attr title "packets received, packetBytes"
vector 56 Scenario.node[0].app[0] throughput:vector ETV
attr recordingmode vector
attr source throughput(packetReceived)
attr title throughput
attr unit bps
vector 57 Scenario.node[0].app[0] rcvdPkLifetime:vector ETV
attr interpolationmode none
attr recordingmode vector
attr source dataAge(packetReceived)
attr title "received packet lifetime"
attr unit s
vector 58 Scenario.node[0].wlan[0].mac.dcf.channelAccess.pendingQueue queueingTime:vector ETV
attr interpolationmode none
attr recordingmode vector
attr source queueingTime(packetPulled)
attr title "queueing times"
attr unit s
vector 59 Scenario.node[0].wlan[0].mac.dcf.channelAccess.pendingQueue outgoingPacketLengths:vector ETV
attr interpolationmode none
attr recordingmode vector
attr source packetLength(packetPulled)
attr title "outgoing packet lengths"
attr unit b
vector 60 Scenario.node[0].wlan[0].mac.dcf.channelAccess.pendingQueue outgoingDataRate:vector ETV
attr interpolationmode linear
attr recordingmode vector
attr source throughput(packetPulled)
attr title "outgoing datarate"
attr unit bps
vector 61 Scenario.node[0].wlan[0].mac.dcf datarateSelected:vector ETV
attr interpolationmode none
attr recordingmode vector
attr title "datarates selected"
vector 62 Scenario.node[0].wlan[0].mac packetSentToLower:vector(packetBytes) ETV
attr interpolationmode none
attr recordingmode vector(packetBytes)
attr title "packets sent to lower layer, packetBytes"
vector 63 Scenario.node[0].wlan[0].radio transmissionState:vector ETV
attr interpolationmode sample-hold
attr recordingmode vector
attr source transmissionStateChanged
attr title "Radio transmission state"
vector 64 Scenario.node[0].wlan[0].mac.dcf packetSentToPeer:vector(packetBytes) ETV
attr interpolationmode none
attr recordingmode vector(packetBytes)
attr title "packets sent, packetBytes"
vector 65 Scenario.node[0].wlan[0].mac.dcf packetSentToPeerMulticast:vector(packetBytes) ETV
attr interpolationmode none
attr recordingmode vector(packetBytes)
attr source ieee80211Multicast(packetSentToPeer)
attr title "packets sent: multicast, packetBytes"
vector 66 Scenario.node[0].wlan[0].mac.dcf packetSentToPeerWithoutRetry:vector(packetBytes) ETV
attr interpolationmode none
attr recordingmode vector(packetBytes)
attr source ieee80211NotRetry(packetSentToPeer)
attr title "packets sent: without retry, packetBytes"
vector 67 Scenario.node[0].wlan[0].mac.dcf.channelAccess.inProgressFrames queueingTime:vector ETV
attr interpolationmode none
attr recordingmode vector
attr source queueingTime(packetDequeued)
attr title "queueing times"
vector 68 Scenario.node[1].wlan[0].mac packetReceivedFromLower:vector(packetBytes) ETV
attr interpolationmode none
attr recordingmode vector(packetBytes)
attr title "packets received from lower layer, packetBytes"
vector 69 Scenario.node[1].wlan[0].mac.dcf packetReceivedFromPeer:vector(packetBytes) ETV
attr interpolationmode none
attr recordingmode vector(packetBytes)
attr title "packets received, packetBytes"
vector 70 Scenario.node[1].wlan[0].mac.dcf packetReceivedFromPeerMulticast:vector(packetBytes) ETV
attr interpolationmode none
attr recordingmode vector(packetBytes)
attr source ieee80211Multicast(packetReceivedFromPeer)
attr title "packets received: multicast, packetBytes"
vector 71 Scenario.node[1].wlan[0].mac.dcf packetReceivedFromPeerWithoutRetry:vector(packetBytes) ETV
attr interpolationmode none
attr recordingmode vector(packetBytes)
attr source ieee80211NotRetry(packetReceivedFromPeer)
attr title "packets received: without retry, packetBytes"
vector 72 Scenario.node[1].wlan[0].mac packetSentToUpper:vector(packetBytes) ETV
attr interpolationmode none
attr recordingmode vector(packetBytes)
attr title "packets sent to upper layer, packetBytes"
vector 73 Scenario.node[1].udp packetReceived:vector(packetBytes) ETV
attr interpolationmode none
attr recordingmode vector(packetBytes)
attr source packetReceived
attr title "packets received, packetBytes"
vector 74 Scenario.node[1].app[0] packetReceived:vector(packetBytes) ETV
attr interpolationmode none
attr recordingmode vector(packetBytes)
attr source packetReceived
attr title "packets received, packetBytes"
vector 75 Scenario.node[1].app[0] throughput:vector ETV
attr recordingmode vector
attr source throughput(packetReceived)
attr title throughput
attr unit bps
vector 76 Scenario.node[1].app[0] rcvdPkLifetime:vector ETV
attr interpolationmode none
attr recordingmode vector
attr source dataAge(packetReceived)
attr title "received packet lifetime"
attr unit s
vector 77 Scenario.node[1].app[0] packetSent:vector(packetBytes) ETV
attr interpolationmode none
attr recordingmode vector(packetBytes)
attr source packetSent
attr title "packets sent, packetBytes"
vector 78 Scenario.node[1].udp packetSent:vector(packetBytes) ETV
attr interpolationmode none
attr recordingmode vector(packetBytes)
attr source packetSent
attr title "packets sent, packetBytes"
vector 79 Scenario.node[1].lo[0].lo rcvdPkFromHl:vector(packetBytes) ETV
attr interpolationmode none
attr recordingmode vector(packetBytes)
attr source packetReceivedFromUpper
attr title "packets received from higher layer, packetBytes"
vector 80 Scenario.node[1].lo[0].lo passedUpPk:vector(packetBytes) ETV
attr interpolationmode none
attr recordingmode vector(packetBytes)
attr source packetSentToUpper
attr title "packets passed to higher layer, packetBytes"
vector 81 Scenario.node[1].wlan[0].mac packetReceivedFromUpper:vector(packetBytes) ETV
attr interpolationmode none
attr recordingmode vector(packetBytes)
attr title "packets received from upper layer, packetBytes"
vector 82 Scenario.node[1].wlan[0].mac.dcf.channelAccess.pendingQueue incomingPacketLengths:vector ETV
attr interpolationmode none
attr recordingmode vector
attr source packetLength(packetPushStarted)
attr title "incoming packet lengths"
attr unit b
vector 83 Scenario.node[1].wlan[0].mac.dcf.channelAccess.pendingQueue incomingDataRate:vector ETV
attr interpolationmode linear
attr recordingmode vector
attr source throughput(packetPushStarted)
attr title "incoming datarate"
attr unit bps
vector 84 Scenario.node[1].wlan[0].mac.dcf.channelAccess.pendingQueue queueLength:vector ETV
attr autoWarmupFilter false
attr interpolationmode sample-hold
attr recordingmode vector
attr source "warmup(atomic(constant0(packetPushEnded) + count(packetPushStarted) - count(packetPulled) - count(packetRemoved) - count(packetDropped)))"
attr title "queue length"
attr unit pk
vector 85 Scenario.node[1].wlan[0].mac.dcf.channelAccess.pendingQueue queueBitLength:vector ETV
attr autoWarmupFilter false
attr interpolationmode sample-hold
attr recordingmode vector
attr source "warmup(atomic(constant0(packetPushEnded) + sum(packetLength(packetPushStarted)) - sum(packetLength(packetPulled)) - sum(packetLength(packetRemoved)) - sum(packetLength(packetDropped))))"
attr title "queue bit length"
attr unit b
vector 86 Scenario.node[1].wlan[0].mac.dcf.channelAccess.contention backoffPeriodGenerated:vector ETV
attr interpolationmode none
attr recordingmode vector
attr title "backoff periods"
vector 87 Scenario.node[0].wlan[0].mac.dcf.channelAccess.pendingQueue droppedPacketLengthsQueueOverflow:vector ETV
attr interpolationmode none
attr recordingmode vector
attr source packetLength(packetDropReasonIsQueueOverflow(packetDropped))
attr title "dropped packet lengths: queue overflow"
attr unit b
vector 88 Scenario.node[0].wlan[0].mac.dcf packetDrop:vector(packetBytes) ETV
attr interpolationmode none
attr recordingmode vector(packetBytes)
attr source packetDropped
attr title "packet drops, packetBytes"
vector 89 Scenario.node[0].wlan[0].mac.dcf packetDropQueueOverflow:vector(packetBytes) ETV
attr interpolationmode none
attr recordingmode vector(packetBytes)
attr source packetDropReasonIsQueueOverflow(packetDropped)
attr title "packet drops: queue overflow, packetBytes"
vector 90 Scenario.node[0].wlan[0].mac packetDrop:vector(packetBytes) ETV
attr interpolationmode none
attr recordingmode vector(packetBytes)
attr source packetDropped
attr title "packet drops, packetBytes"
vector 91 Scenario.node[0].wlan[0].mac packetDropQueueOverflow:vector(packetBytes) ETV
attr interpolationmode none
attr recordingmode vector(packetBytes)
attr source packetDropReasonIsQueueOverflow(packetDropped)
attr title "packet drops: queue overflow, packetBytes"
vector 92 Scenario.node[1].wlan[0].mac.dcf.channelAccess.pendingQueue droppedPacketLengthsQueueOverflow:vector ETV
attr interpolationmode none
attr recordingmode vector
attr source packetLength(packetDropReasonIsQueueOverflow(packetDropped))
attr title "dropped packet lengths: queue overflow"
attr unit b
vector 93 Scenario.node[1].wlan[0].mac.dcf packetDrop:vector(packetBytes) ETV
attr interpolationmode none
attr recordingmode vector(packetBytes)
attr source packetDropped
attr title "packet drops, packetBytes"
vector 94 Scenario.node[1].wlan[0].mac.dcf packetDropQueueOverflow:vector(packetBytes) ETV
attr interpolationmode none
attr recordingmode vector(packetBytes)
attr source packetDropReasonIsQueueOverflow(packetDropped)
attr title "packet drops: queue overflow, packetBytes"
vector 95 Scenario.node[1].wlan[0].mac packetDrop:vector(packetBytes) ETV
attr interpolationmode none
attr recordingmode vector(packetBytes)
attr source packetDropped
attr title "packet drops, packetBytes"
vector 96 Scenario.node[1].wlan[0].mac packetDropQueueOverflow:vector(packetBytes) ETV
attr interpolationmode none
attr recordingmode vector(packetBytes)
attr source packetDropReasonIsQueueOverflow(packetDropped)
attr title "packet drops: queue overflow, packetBytes"
0	2	0.1	0
0	2	0.1	0
0	227	20	1
0	233	20.000152	0
1	2	0.1	0
1	2	0.1	0
1	227	20	1
1	233	20.000152	0
2	2	0.1	0
2	2	0.1	0
2	223	20	1
2	226	20	0
2	265	21	1
3	2	0.1	0
3	224	20	1
3	268	21	2
3	286	21	3
3	304	21	4
3	322	21	5
3	340	21	6
3	358	21	7
3	376	21	8
3	394	21	9
3	412	21	10
3	430	21	11
3	448	21	12
3	466	21	13
3	484	21	14
3	502	21	15
3	520	21	16
3	538	21	17
3	556	21	18
3	574	21	19
3	592	21	20
3	610	21	21
3	628	21	22
3	646	21	23
3	664	21	24
3	682	21	25
3	700	21	26
3	718	21	27
3	736	21	28
3	754	21	29
3	772	21	30
3	790	21	31
3	808	21	32
3	826	21	33
3	844	21	34
3	862	21	35
3	880	21	36
3	898	21	37
3	916	21	38
3	934	21	39
3	952	21	40
3	970	21	41
3	988	21	42
3	1006	21	43
3	1024	21	44
3	1042	21	45
3	1060	21	46
3	1078	21	47
3	1096	21	48
3	1114	21	49
3	1132	21	50
3	1150	21	51
3	1168	21	52
3	1186	21	53
3	1204	21	54
3	1222	21	55
3	1240	21	56
3	1258	21	57
3	1276	21	58
3	1294	21	59
3	1312	21	60
3	1330	21	61
3	1348	21	62
3	1366	21	63
3	1384	21	64
3	1402	21	65
3	1420	21	66
3	1438	21	67
3	1456	21	68
3	1474	21	69
3	1492	21	70
3	1510	21	71
3	1528	21	72
3	1546	21	73
3	1564	21	74
3	1582	21	75
3	1600	21	76
3	1618	21	77
3	1636	21	78
3	1654	21	79
3	1672	21	80
3	1690	21	81
3	1708	21	82
3	1726	21	83
3	1744	21	84
3	1762	21	85
3	1780	21	86
3	1798	21	87
3	1816	21	88
3	1834	21	89
3	1852	21	90
3	1870	21	91
3	1888	21	92
3	1906	21	93
3	1924	21	94
3	1942	21	95
3	1960	21	96
3	1978	21	97
3	1996	21	98
3	2014	21	99
3	2032	21	100
3	2050	21	101
3	2068	21	102
3	2086	21	103
3	2104	21	104
3	2122	21	105
3	2140	21	106
3	2158	21	107
3	2176	21	108
3	2194	21	109
3	2212	21	110
3	2230	21	111
3	2248	21	112
3	2266	21	113
3	2284	21	114
3	2302	21	115
3	2320	21	116
3	2338	21	117
3	2356	21	118
3	2374	21	119
3	2392	21	120
3	2410	21	121
3	2428	21	122
3	2446	21	123
3	2464	21	124
3	2482	21	125
3	2500	21	126
3	2518	21	127
3	2536	21	128
3	2554	21	129
3	2572	21	130
3	2590	21	131
3	2608	21	132
3	2626	21	133
3	2644	21	134
3	2662	21	135
3	2680	21	136
3	2698	21	137
3	2716	21	138
3	2734	21	139
3	2752	21	140
3	2770	21	141
3	2788	21	142
3	2806	21	143
3	2824	21	144
3	2842	21	145
3	2860	21	146
3	2878	21	147
3	2896	21	148
3	2914	21	149
3	2932	21	150
3	2950	21	151
3	2968	21	152
3	2986	21	153
3	3004	21	154
3	3022	21	155
3	3040	21	156
3	3058	21	157
3	3076	21	158
3	3094	21	159
3	3112	21	160
3	3130	21	161
3	3148	21	162
3	3166	21	163
3	3184	21	164
3	3202	21	165
3	3220	21	166
3	3238	21	167
3	3256	21	168
3	3274	21	169
3	3292	21	170
3	3310	21	171
3	3328	21	172
3	3346	21	173
3	3364	21	174
3	3382	21	175
3	3400	21	176
3	3418	21	177
3	3436	21	178
3	3454	21	179
3	3472	21	180
3	3490	21	181
3	3508	21	182
3	3526	21	183
3	3544	21	184
3	3562	21	185
3	3580	21	186
3	3598	21	187
3	3616	21	188
3	3634	21	189
3	3652	21	190
3	3670	21	191
3	3688	21	192
3	3706	21	193
3	3724	21	194
3	3742	21	195
3	3760	21	196
3	3778	21	197
3	3796	21	198
3	3814	21	199
3	3832	21	200
3	3850	21	201
3	3868	21	202
3	3886	21	203
3	3904	21	204
3	3922	21	205
3	3940	21	206
3	3958	21	207
3	3976	21	208
3	3994	21	209
3	4012	21	210
3	4030	21	211
3	4048	21	212
3	4066	21	213
3	4084	21	214
3	4102	21	215
3	4120	21	216
3	4138	21	217
3	4156	21	218
3	4174	21	219
3	4192	21	220
3	4210	21	221
3	4228	21	222
3	4246	21	223
3	4264	21	224
3	4282	21	225
3	4300	21	226
3	4318	21	227
3	4336	21	228
3	4354	21	229
3	4372	21	230
3	4390	21	231
3	4408	21	232
3	4426	21	233
3	4444	21	234
3	4462	21	235
3	4480	21	236
3	4498	21	237
3	4516	21	238
3	4534	21	239
3	4552	21	240
3	4570	21	241
3	4588	21	242
3	4606	21	243
3	4624	21	244
3	4642	21	245
3	4660	21	246
3	4678	21	247
3	4696	21	248
3	4714	21	249
3	4732	21	250
3	4750	21	251
3	4768	21	252
3	4786	21	253
3	4804	21	254
3	4822	21	255
3	4840	21	256
3	4858	21	257
3	4876	21	258
3	4894	21	259
3	4912	21	260
3	4930	21	261
3	4948	21	262
3	4966	21	263
3	4984	21	264
3	5002	21	265
3	5020	21	266
3	5038	21	267
3	5056	21	268
3	5074	21	269
3	5092	21	270
3	5110	21	271
3	5128	21	272
3	5146	21	273
3	5164	21	274
3	5182	21	275
3	5200	21	276
3	5218	21	277
3	5236	21	278
3	5254	21	279
3	5272	21	280
3	5290	21	281
3	5308	21	282
3	5326	21	283
3	5344	21	284
3	5362	21	285
3	5380	21	286
3	5398	21	287
3	5416	21	288
3	5434	21	289
3	5452	21	290
3	5470	21	291
3	5488	21	292
3	5506	21	293
3	5524	21	294
3	5542	21	295
3	5560	21	296
3	5578	21	297
3	5596	21	298
3	5614	21	299
3	5632	21	300
3	5650	21	301
3	5668	21	302
3	5686	21	303
3	5704	21	304
3	5722	21	305
3	5740	21	306
3	5758	21	307
3	5776	21	308
3	5794	21	309
3	5812	21	310
3	5830	21	311
3	5848	21	312
3	5866	21	313
3	5884	21	314
3	5902	21	315
3	5920	21	316
3	5938	21	317
3	5956	21	318
3	5974	21	319
3	5992	21	320
3	6010	21	321
3	6028	21	322
3	6046	21	323
3	6064	21	324
3	6082	21	325
3	6100	21	326
3	6118	21	327
3	6136	21	328
3	6154	21	329
3	6172	21	330
3	6190	21	331
3	6208	21	332
3	6226	21	333
3	6244	21	334
3	6262	21	335
3	6280	21	336
3	6298	21	337
3	6316	21	338
3	6334	21	339
3	6352	21	340
3	6370	21	341
3	6388	21	342
3	6406	21	343
3	6424	21	344
3	6442	21	345
3	6460	21	346
3	6478	21	347
3	6496	21	348
3	6514	21	349
3	6532	21	350
3	6550	21	351
3	6568	21	352
3	6586	21	353
3	6604	21	354
3	6622	21	355
3	6640	21	356
3	6658	21	357
3	6676	21	358
3	6694	21	359
3	6712	21	360
3	6730	21	361
3	6748	21	362
3	6766	21	363
3	6784	21	364
3	6802	21	365
3	6820	21	366
3	6838	21	367
3	6856	21	368
3	6874	21	369
3	6892	21	370
3	6910	21	371
3	6928	21	372
3	6946	21	373
3	6964	21	374
3	6982	21	375
3	7000	21	376
3	7018	21	377
3	7036	21	378
3	7054	21	379
3	7072	21	380
3	7090	21	381
3	7108	21	382
3	7126	21	383
3	7144	21	384
3	7162	21	385
3	7180	21	386
3	7198	21	387
3	7216	21	388
3	7234	21	389
3	7252	21	390
3	7270	21	391
3	7288	21	392
3	7306	21	393
3	7324	21	394
3	7342	21	395
3	7360	21	396
3	7378	21	397
3	7396	21	398
3	7414	21	399
3	7432	21	400
3	7450	21	401
3	7468	21	402
3	7486	21	403
3	7504	21	404
3	7522	21	405
3	7540	21	406
3	7558	21	407
3	7576	21	408
3	7594	21	409
3	7612	21	410
3	7630	21	411
3	7648	21	412
3	7666	21	413
3	7684	21	414
3	7702	21	415
3	7720	21	416
3	7738	21	417
3	7756	21	418
3	7774	21	419
3	7792	21	420
3	7810	21	421
3	7828	21	422
3	7846	21	423
3	7864	21	424
3	7882	21	425
3	7900	21	426
3	7918	21	427
3	7936	21	428
3	7954	21	429
3	7972	21	430
3	7990	21	431
3	8008	21	432
3	8026	21	433
3	8044	21	434
3	8062	21	435
3	8080	21	436
3	8098	21	437
3	8116	21	438
3	8134	21	439
3	8152	21	440
3	8170	21	441
3	8188	21	442
3	8206	21	443
3	8224	21	444
3	8242	21	445
3	8260	21	446
3	8278	21	447
3	8296	21	448
3	8314	21	449
3	8332	21	450
3	8350	21	451
3	8368	21	452
3	8386	21	453
3	8404	21	454
3	8422	21	455
3	8440	21	456
3	8458	21	457
3	8476	21	458
3	8494	21	459
3	8512	21	460
3	8530	21	461
3	8548	21	462
3	8566	21	463
3	8584	21	464
3	8602	21	465
3	8620	21	466
3	8638	21	467
3	8656	21	468
3	8674	21	469
3	8692	21	470
3	8710	21	471
3	8728	21	472
3	8746	21	473
3	8764	21	474
3	8782	21	475
3	8800	21	476
3	8818	21	477
3	8836	21	478
3	8854	21	479
3	8872	21	480
3	8890	21	481
3	8908	21	482
3	8926	21	483
3	8944	21	484
3	8962	21	485
3	8980	21	486
3	8998	21	487
3	9016	21	488
3	9034	21	489
3	9052	21	490
3	9070	21	491
3	9088	21	492
3	9106	21	493
3	9124	21	494
3	9142	21	495
3	9160	21	496
3	9178	21	497
3	9196	21	498
3	9214	21	499
3	9232	21	500
3	9250	21	501
3	9268	21	502
3	9286	21	503
3	9304	21	504
3	9322	21	505
3	9340	21	506
3	9358	21	507
3	9376	21	508
3	9394	21	509
3	9412	21	510
3	9430	21	511
3	9448	21	512
3	9466	21	513
3	9484	21	514
3	9502	21	515
3	9520	21	516
3	9538	21	517
3	9556	21	518
3	9574	21	519
3	9592	21	520
3	9610	21	521
3	9628	21	522
3	9646	21	523
3	9664	21	524
3	9682	21	525
3	9700	21	526
3	9718	21	527
3	9736	21	528
3	9754	21	529
3	9772	21	530
3	9790	21	531
3	9808	21	532
3	9826	21	533
3	9844	21	534
3	9862	21	535
3	9880	21	536
3	9898	21	537
3	9916	21	538
3	9934	21	539
3	9952	21	540
3	9970	21	541
3	9988	21	542
3	10006	21	543
3	10024	21	544
3	10042	21	545
3	10060	21	546
3	10078	21	547
3	10096	21	548
3	10114	21	549
3	10132	21	550
3	10150	21	551
3	10168	21	552
3	10186	21	553
3	10204	21	554
3	10222	21	555
3	10240	21	556
3	10258	21	557
3	10276	21	558
3	10294	21	559
3	10312	21	560
3	10330	21	561
3	10348	21	562
3	10366	21	563
3	10384	21	564
3	10402	21	565
3	10420	21	566
3	10438	21	567
3	10456	21	568
3	10474	21	569
3	10492	21	570
3	10510	21	571
3	10528	21	572
3	10546	21	573
3	10564	21	574
3	10582	21	575
3	10600	21	576
3	10618	21	577
3	10636	21	578
3	10654	21	579
3	10672	21	580
3	10690	21	581
3	10708	21	582
3	10726	21	583
3	10744	21	584
3	10762	21	585
3	10780	21	586
3	10798	21	587
3	10816	21	588
3	10834	21	589
3	10852	21	590
3	10870	21	591
3	10888	21	592
3	10906	21	593
3	10924	21	594
3	10942	21	595
3	10960	21	596
3	10978	21	597
3	10996	21	598
3	11014	21	599
3	11032	21	600
3	11050	21	601
3	11068	21	602
3	11086	21	603
3	11104	21	604
3	11122	21	605
3	11140	21	606
3	11158	21	607
3	11176	21	608
3	11194	21	609
3	11212	21	610
3	11230	21	611
3	11248	21	612
3	11266	21	613
3	11284	21	614
3	11302	21	615
3	11320	21	616
3	11338	21	617
3	11356	21	618
3	11374	21	619
3	11392	21	620
3	11410	21	621
3	11428	21	622
3	11446	21	623
3	11464	21	624
3	11482	21	625
3	11500	21	626
3	11518	21	627
3	11536	21	628
3	11554	21	629
3	11572	21	630
3	11590	21	631
3	11608	21	632
3	11626	21	633
3	11644	21	634
3	11662	21	635
3	11680	21	636
3	11698	21	637
3	11716	21	638
3	11734	21	639
3	11752	21	640
3	11770	21	641
3	11788	21	642
3	11806	21	643
3	11824	21	644
3	11842	21	645
3	11860	21	646
3	11878	21	647
3	11896	21	648
3	11914	21	649
3	11932	21	650
3	11950	21	651
3	11968	21	652
3	11986	21	653
3	12004	21	654
3	12022	21	655
3	12040	21	656
3	12058	21	657
3	12076	21	658
3	12094	21	659
3	12112	21	660
3	12130	21	661
3	12148	21	662
3	12166	21	663
3	12184	21	664
3	12202	21	665
3	12220	21	666
3	12238	21	667
3	12256	21	668
3	12274	21	669
3	12292	21	670
3	12310	21	671
3	12328	21	672
3	12346	21	673
3	12364	21	674
3	12382	21	675
3	12400	21	676
3	12418	21	677
3	12436	21	678
3	12454	21	679
3	12472	21	680
3	12490	21	681
3	12508	21	682
3	12526	21	683
3	12544	21	684
3	12562	21	685
3	12580	21	686
3	12598	21	687
3	12616	21	688
3	12634	21	689
3	12652	21	690
3	12670	21	691
3	12688	21	692
3	12706	21	693
3	12724	21	694
3	12742	21	695
3	12760	21	696
3	12778	21	697
3	12796	21	698
3	12814	21	699
3	12832	21	700
3	12850	21	701
3	12868	21	702
3	12886	21	703
3	12904	21	704
3	12922	21	705
3	12940	21	706
3	12958	21	707
3	12976	21	708
3	12994	21	709
3	13012	21	710
3	13030	21	711
3	13048	21	712
3	13066	21	713
3	13084	21	714
3	13102	21	715
3	13120	21	716
3	13138	21	717
3	13156	21	718
3	13174	21	719
3	13192	21	720
3	13210	21	721
3	13228	21	722
3	13246	21	723
3	13264	21	724
3	13282	21	725
3	13300	21	726
3	13318	21	727
3	13336	21	728
3	13354	21	729
3	13372	21	730
3	13390	21	731
3	13408	21	732
3	13426	21	733
3	13444	21	734
3	13462	21	735
3	13480	21	736
3	13498	21	737
3	13516	21	738
3	13534	21	739
3	13552	21	740
3	13570	21	741
3	13588	21	742
3	13606	21	743
3	13624	21	744
3	13642	21	745
3	13660	21	746
3	13678	21	747
3	13696	21	748
3	13714	21	749
3	13732	21	750
3	13750	21	751
3	13768	21	752
3	13786	21	753
3	13804	21	754
3	13822	21	755
3	13840	21	756
3	13858	21	757
3	13876	21	758
3	13894	21	759
3	13912	21	760
3	13930	21	761
3	13948	21	762
3	13966	21	763
3	13984	21	764
3	14002	21	765
3	14020	21	766
3	14038	21	767
3	14056	21	768
3	14074	21	769
3	14092	21	770
3	14110	21	771
3	14128	21	772
3	14146	21	773
3	14164	21	774
3	14182	21	775
3	14200	21	776
3	14218	21	777
3	14236	21	778
3	14254	21	779
3	14272	21	780
3	14290	21	781
3	14308	21	782
3	14326	21	783
3	14344	21	784
3	14362	21	785
3	14380	21	786
3	14398	21	787
3	14416	21	788
3	14434	21	789
3	14452	21	790
3	14470	21	791
3	14488	21	792
3	14506	21	793
3	14524	21	794
3	14542	21	795
3	14560	21	796
3	14578	21	797
3	14596	21	798
3	14614	21	799
3	14632	21	800
3	14650	21	801
3	14668	21	802
3	14686	21	803
3	14704	21	804
3	14722	21	805
3	14740	21	806
3	14758	21	807
3	14776	21	808
3	14794	21	809
3	14812	21	810
3	14830	21	811
3	14848	21	812
3	14866	21	813
3	14884	21	814
3	14902	21	815
3	14920	21	816
3	14938	21	817
3	14956	21	818
3	14974	21	819
3	14992	21	820
3	15010	21	821
3	15028	21	822
3	15046	21	823
3	15064	21	824
3	15082	21	825
3	15100	21	826
3	15118	21	827
3	15136	21	828
3	15154	21	829
3	15172	21	830
3	15190	21	831
3	15208	21	832
3	15226	21	833
3	15244	21	834
3	15262	21	835
3	15280	21	836
3	15298	21	837
3	15316	21	838
3	15334	21	839
3	15352	21	840
3	15370	21	841
3	15388	21	842
3	15406	21	843
3	15424	21	844
3	15442	21	845
3	15460	21	846
3	15478	21	847
3	15496	21	848
3	15514	21	849
3	15532	21	850
3	15550	21	851
3	15568	21	852
3	15586	21	853
3	15604	21	854
3	15622	21	855
3	15640	21	856
3	15658	21	857
3	15676	21	858
3	15694	21	859
3	15712	21	860
3	15730	21	861
3	15748	21	862
3	15766	21	863
3	15784	21	864
3	15802	21	865
3	15820	21	866
3	15838	21	867
3	15856	21	868
3	15874	21	869
3	15892	21	870
3	15910	21	871
3	15928	21	872
3	15946	21	873
3	15964	21	874
3	15982	21	875
3	16000	21	876
3	16018	21	877
3	16036	21	878
3	16054	21	879
3	16072	21	880
3	16090	21	881
3	16108	21	882
3	16126	21	883
3	16144	21	884
3	16162	21	885
3	16180	21	886
3	16198	21	887
3	16216	21	888
3	16234	21	889
3	16252	21	890
3	16270	21	891
3	16288	21	892
3	16306	21	893
3	16324	21	894
3	16342	21	895
3	16360	21	896
3	16378	21	897
3	16396	21	898
3	16414	21	899
3	16432	21	900
3	16450	21	901
3	16468	21	902
3	16486	21	903
3	16504	21	904
3	16522	21	905
3	16540	21	906
3	16558	21	907
3	16576	21	908
3	16594	21	909
3	16612	21	910
3	16630	21	911
3	16648	21	912
3	16666	21	913
3	16684	21	914
3	16702	21	915
3	16720	21	916
3	16738	21	917
3	16756	21	918
3	16774	21	919
3	16792	21	920
3	16810	21	921
3	16828	21	922
3	16846	21	923
3	16864	21	924
3	16882	21	925
3	16900	21	926
3	16918	21	927
3	16936	21	928
3	16954	21	929
3	16972	21	930
3	16990	21	931
3	17008	21	932
3	17026	21	933
3	17044	21	934
3	17062	21	935
3	17080	21	936
3	17098	21	937
3	17116	21	938
3	17134	21	939
3	17152	21	940
3	17170	21	941
3	17188	21	942
3	17206	21	943
3	17224	21	944
3	17242	21	945
3	17260	21	946
3	17278	21	947
3	17296	21	948
3	17314	21	949
3	17332	21	950
3	17350	21	951
3	17368	21	952
3	17386	21	953
3	17404	21	954
3	17422	21	955
3	17440	21	956
3	17458	21	957
3	17476	21	958
3	17494	21	959
3	17512	21	960
3	17530	21	961
3	17548	21	962
3	17566	21	963
3	17584	21	964
3	17602	21	965
3	17620	21	966
3	17638	21	967
3	17656	21	968
3	17674	21	969
3	17692	21	970
3	17710	21	971
3	17728	21	972
3	17746	21	973
3	17764	21	974
3	17782	21	975
3	17800	21	976
3	17818	21	977
3	17836	21	978
3	17854	21	979
3	17872	21	980
3	17890	21	981
3	17908	21	982
3	17926	21	983
3	17944	21	984
3	17962	21	985
3	17980	21	986
3	17998	21	987
3	18016	21	988
3	18034	21	989
3	18052	21	990
3	18070	21	991
3	18088	21	992
3	18106	21	993
3	18124	21	994
3	18142	21	995
3	18160	21	996
3	18178	21	997
3	18196	21	998
3	18214	21	999
3	18232	21	1000
3	18250	21	1001
3	18268	21	1002
3	18286	21	1003
3	18304	21	1004
3	18322	21	1005
3	18340	21	1006
3	18358	21	1007
3	18376	21	1008
3	18394	21	1009
3	18412	21	1010
3	18430	21	1011
3	18448	21	1012
3	18466	21	1013
3	18484	21	1014
3	18502	21	1015
3	18520	21	1016
3	18538	21	1017
3	18556	21	1018
3	18574	21	1019
3	18592	21	1020
3	18610	21	1021
3	18628	21	1022
3	18646	21	1023
3	18664	21	1024
3	18682	21	1025
3	18700	21	1026
3	18718	21	1027
3	18736	21	1028
3	18754	21	1029
3	18772	21	1030
3	18790	21	1031
3	18808	21	1032
3	18826	21	1033
3	18844	21	1034
3	18862	21	1035
3	18880	21	1036
3	18898	21	1037
3	18916	21	1038
3	18934	21	1039
3	18952	21	1040
3	18970	21	1041
3	18988	21	1042
3	19006	21	1043
3	19024	21	1044
3	19042	21	1045
3	19060	21	1046
3	19078	21	1047
3	19096	21	1048
3	19114	21	1049
3	19132	21	1050
3	19150	21	1051
3	19168	21	1052
3	19186	21	1053
3	19204	21	1054
3	19222	21	1055
3	19240	21	1056
3	19258	21	1057
3	19276	21	1058
3	19294	21	1059
3	19312	21	1060
3	19330	21	1061
3	19348	21	1062
3	19366	21	1063
3	19384	21	1064
3	19402	21	1065
3	19420	21	1066
3	19438	21	1067
3	19456	21	1068
3	19474	21	1069
3	19492	21	1070
3	19510	21	1071
3	19528	21	1072
3	19546	21	1073
3	19564	21	1074
3	19582	21	1075
3	19600	21	1076
3	19618	21	1077
3	19636	21	1078
3	19654	21	1079
3	19672	21	1080
3	19690	21	1081
3	19708	21	1082
3	19726	21	1083
3	19744	21	1084
3	19762	21	1085
3	19780	21	1086
3	19798	21	1087
3	19816	21	1088
3	19834	21	1089
3	19852	21	1090
3	19870	21	1091
3	19888	21	1092
3	19906	21	1093
3	19924	21	1094
3	19942	21	1095
3	19960	21	1096
3	19978	21	1097
3	19996	21	1098
3	20014	21	1099
3	20032	21	1100
3	20050	21	1101
3	20068	21	1102
3	20086	21	1103
3	20104	21	1104
3	20122	21	1105
3	20140	21	1106
3	20158	21	1107
3	20176	21	1108
3	20194	21	1109
3	20212	21	1110
3	20230	21	1111
3	20248	21	1112
3	20266	21	1113
3	20284	21	1114
3	20302	21	1115
3	20320	21	1116
3	20338	21	1117
3	20356	21	1118
3	20374	21	1119
3	20392	21	1120
3	20410	21	1121
3	20428	21	1122
3	20446	21	1123
3	20464	21	1124
3	20482	21	1125
3	20500	21	1126
3	20518	21	1127
3	20536	21	1128
3	20554	21	1129
3	20572	21	1130
3	20590	21	1131
3	20608	21	1132
3	20626	21	1133
3	20644	21	1134
3	20662	21	1135
3	20680	21	1136
3	20698	21	1137
3	20716	21	1138
3	20734	21	1139
3	20752	21	1140
3	20770	21	1141
3	20788	21	1142
3	20806	21	1143
3	20824	21	1144
3	20842	21	1145
3	20860	21	1146
3	20878	21	1147
3	20896	21	1148
3	20914	21	1149
3	20932	21	1150
3	20950	21	1151
3	20968	21	1152
3	20986	21	1153
3	21004	21	1154
3	21022	21	1155
3	21040	21	1156
3	21058	21	1157
3	21076	21	1158
3	21094	21	1159
3	21112	21	1160
3	21130	21	1161
3	21148	21	1162
3	21166	21	1163
3	21184	21	1164
3	21202	21	1165
3	21220	21	1166
3	21238	21	1167
3	21256	21	1168
3	21274	21	1169
3	21292	21	1170
3	21310	21	1171
3	21328	21	1172
3	21346	21	1173
3	21364	21	1174
3	21382	21	1175
3	21400	21	1176
3	21418	21	1177
3	21436	21	1178
3	21454	21	1179
3	21472	21	1180
3	21490	21	1181
3	21508	21	1182
3	21526	21	1183
3	21544	21	1184
3	21562	21	1185
3	21580	21	1186
3	21598	21	1187
3	21616	21	1188
3	21634	21	1189
3	21652	21	1190
3	21670	21	1191
3	21688	21	1192
3	21706	21	1193
3	21724	21	1194
3	21742	21	1195
3	21760	21	1196
3	21778	21	1197
3	21796	21	1198
3	21814	21	1199
3	21832	21	1200
3	21850	21	1201
3	21868	21	1202
3	21886	21	1203
3	21904	21	1204
3	21922	21	1205
3	21940	21	1206
3	21958	21	1207
3	21976	21	1208
3	21994	21	1209
3	22012	21	1210
3	22030	21	1211
3	22048	21	1212
3	22066	21	1213
3	22084	21	1214
3	22102	21	1215
3	22120	21	1216
3	22138	21	1217
3	22156	21	1218
3	22174	21	1219
3	22192	21	1220
3	22210	21	1221
3	22228	21	1222
3	22246	21	1223
3	22264	21	1224
3	22282	21	1225
3	22300	21	1226
3	22318	21	1227
3	22336	21	1228
3	22354	21	1229
3	22372	21	1230
3	22390	21	1231
3	22408	21	1232
3	22426	21	1233
3	22444	21	1234
3	22462	21	1235
3	22480	21	1236
3	22498	21	1237
3	22516	21	1238
3	22534	21	1239
3	22552	21	1240
3	22570	21	1241
3	22588	21	1242
3	22606	21	1243
3	22624	21	1244
3	22642	21	1245
3	22660	21	1246
3	22678	21	1247
3	22696	21	1248
3	22714	21	1249
3	22732	21	1250
3	22750	21	1251
3	22768	21	1252
3	22786	21	1253
3	22804	21	1254
3	22822	21	1255
3	22840	21	1256
3	22858	21	1257
3	22876	21	1258
3	22894	21	1259
3	22912	21	1260
3	22930	21	1261
3	22948	21	1262
3	22966	21	1263
3	22984	21	1264
3	23002	21	1265
3	23020	21	1266
3	23038	21	1267
3	23056	21	1268
3	23074	21	1269
3	23092	21	1270
3	23110	21	1271
3	23128	21	1272
3	23146	21	1273
3	23164	21	1274
3	23182	21	1275
3	23200	21	1276
3	23218	21	1277
3	23236	21	1278
3	23254	21	1279
3	23272	21	1280
3	23290	21	1281
3	23308	21	1282
3	23326	21	1283
3	23344	21	1284
3	23362	21	1285
3	23380	21	1286
3	23398	21	1287
3	23416	21	1288
3	23434	21	1289
3	23452	21	1290
3	23470	21	1291
3	23488	21	1292
3	23506	21	1293
3	23524	21	1294
3	23542	21	1295
3	23560	21	1296
3	23578	21	1297
3	23596	21	1298
3	23614	21	1299
3	23632	21	1300
3	23650	21	1301
3	23668	21	1302
3	23686	21	1303
3	23704	21	1304
3	23722	21	1305
3	23740	21	1306
3	23758	21	1307
3	23776	21	1308
3	23794	21	1309
3	23812	21	1310
3	23830	21	1311
3	23848	21	1312
3	23866	21	1313
3	23884	21	1314
3	23902	21	1315
3	23920	21	1316
3	23938	21	1317
3	23956	21	1318
3	23974	21	1319
3	23992	21	1320
3	24010	21	1321
3	24028	21	1322
3	24046	21	1323
3	24064	21	1324
3	24082	21	1325
3	24100	21	1326
3	24118	21	1327
3	24136	21	1328
3	24154	21	1329
3	24172	21	1330
3	24190	21	1331
3	24208	21	1332
3	24226	21	1333
3	24244	21	1334
3	24262	21	1335
3	24280	21	1336
3	24298	21	1337
3	24316	21	1338
3	24334	21	1339
3	24352	21	1340
3	24370	21	1341
3	24388	21	1342
3	24406	21	1343
3	24424	21	1344
3	24442	21	1345
3	24460	21	1346
3	24478	21	1347
3	24496	21	1348
3	24514	21	1349
3	24532	21	1350
3	24550	21	1351
3	24568	21	1352
3	24586	21	1353
3	24604	21	1354
3	24622	21	1355
3	24640	21	1356
3	24658	21	1357
3	24676	21	1358
3	24694	21	1359
3	24712	21	1360
3	24730	21	1361
3	24748	21	1362
3	24766	21	1363
3	24784	21	1364
3	24802	21	1365
3	24820	21	1366
3	24838	21	1367
3	24856	21	1368
3	24874	21	1369
3	24892	21	1370
3	24910	21	1371
3	24928	21	1372
3	24946	21	1373
3	24964	21	1374
3	24982	21	1375
3	25000	21	1376
3	25018	21	1377
3	25036	21	1378
3	25054	21	1379
3	25072	21	1380
3	25090	21	1381
3	25108	21	1382
3	25126	21	1383
3	25144	21	1384
3	25162	21	1385
3	25180	21	1386
3	25198	21	1387
3	25216	21	1388
3	25234	21	1389
3	25252	21	1390
3	25270	21	1391
3	25288	21	1392
3	25306	21	1393
3	25324	21	1394
3	25342	21	1395
3	25360	21	1396
3	25378	21	1397
3	25396	21	1398
3	25414	21	1399
3	25432	21	1400
3	25450	21	1401
3	25468	21	1402
3	25486	21	1403
3	25504	21	1404
3	25522	21	1405
3	25540	21	1406
3	25558	21	1407
3	25576	21	1408
3	25594	21	1409
3	25612	21	1410
3	25630	21	1411
3	25648	21	1412
3	25666	21	1413
3	25684	21	1414
3	25702	21	1415
3	25720	21	1416
3	25738	21	1417
3	25756	21	1418
3	25774	21	1419
3	25792	21	1420
3	25810	21	1421
3	25828	21	1422
3	25846	21	1423
3	25864	21	1424
3	25882	21	1425
3	25900	21	1426
3	25918	21	1427
3	25936	21	1428
3	25954	21	1429
3	25972	21	1430
3	25990	21	1431
3	26008	21	1432
3	26026	21	1433
3	26044	21	1434
3	26062	21	1435
3	26080	21	1436
3	26098	21	1437
3	26116	21	1438
3	26134	21	1439
3	26152	21	1440
3	26170	21	1441
3	26188	21	1442
3	26206	21	1443
3	26224	21	1444
3	26242	21	1445
3	26260	21	1446
3	26278	21	1447
3	26296	21	1448
3	26314	21	1449
3	26332	21	1450
3	26350	21	1451
3	26368	21	1452
3	26386	21	1453
3	26404	21	1454
3	26422	21	1455
3	26440	21	1456
3	26458	21	1457
3	26476	21	1458
3	26494	21	1459
3	26512	21	1460
3	26530	21	1461
3	26548	21	1462
3	26566	21	1463
3	26584	21	1464
3	26602	21	1465
3	26620	21	1466
3	26638	21	1467
3	26656	21	1468
3	26674	21	1469
3	26692	21	1470
3	26710	21	1471
3	26728	21	1472
3	26746	21	1473
3	26764	21	1474
3	26782	21	1475
3	26800	21	1476
3	26818	21	1477
3	26836	21	1478
3	26854	21	1479
3	26872	21	1480
3	26890	21	1481
3	26908	21	1482
3	26926	21	1483
3	26944	21	1484
3	26962	21	1485
3	26980	21	1486
3	26998	21	1487
3	27016	21	1488
3	27034	21	1489
3	27052	21	1490
3	27070	21	1491
3	27088	21	1492
3	27106	21	1493
3	27124	21	1494
3	27142	21	1495
3	27160	21	1496
3	27178	21	1497
3	27196	21	1498
3	27214	21	1499
3	27232	21	1500
3	27250	21	1501
3	27268	21	1502
3	27286	21	1503
3	27304	21	1504
3	27322	21	1505
3	27340	21	1506
3	27358	21	1507
3	27376	21	1508
3	27394	21	1509
3	27412	21	1510
3	27430	21	1511
3	27448	21	1512
3	27466	21	1513
3	27484	21	1514
3	27502	21	1515
3	27520	21	1516
3	27538	21	1517
3	27556	21	1518
3	27574	21	1519
3	27592	21	1520
3	27610	21	1521
3	27628	21	1522
3	27646	21	1523
3	27664	21	1524
3	27682	21	1525
3	27700	21	1526
3	27718	21	1527
3	27736	21	1528
3	27754	21	1529
3	27772	21	1530
3	27790	21	1531
3	27808	21	1532
3	27826	21	1533
3	27844	21	1534
3	27862	21	1535
3	27880	21	1536
3	27898	21	1537
3	27916	21	1538
3	27934	21	1539
3	27952	21	1540
3	27970	21	1541
3	27988	21	1542
3	28006	21	1543
3	28024	21	1544
3	28042	21	1545
3	28060	21	1546
3	28078	21	1547
3	28096	21	1548
3	28114	21	1549
3	28132	21	1550
3	28150	21	1551
3	28168	21	1552
3	28186	21	1553
3	28204	21	1554
3	28222	21	1555
3	28240	21	1556
3	28258	21	1557
3	28276	21	1558
3	28294	21	1559
3	28312	21	1560
3	28330	21	1561
3	28348	21	1562
3	28366	21	1563
3	28384	21	1564
3	28402	21	1565
3	28420	21	1566
3	28438	21	1567
3	28456	21	1568
3	28474	21	1569
3	28492	21	1570
3	28510	21	1571
3	28528	21	1572
3	28546	21	1573
3	28564	21	1574
3	28582	21	1575
3	28600	21	1576
3	28618	21	1577
3	28636	21	1578
3	28654	21	1579
3	28672	21	1580
3	28690	21	1581
3	28708	21	1582
3	28726	21	1583
3	28744	21	1584
3	28762	21	1585
3	28780	21	1586
3	28798	21	1587
3	28816	21	1588
3	28834	21	1589
3	28852	21	1590
3	28870	21	1591
3	28888	21	1592
3	28906	21	1593
3	28924	21	1594
3	28942	21	1595
3	28960	21	1596
3	28978	21	1597
3	28996	21	1598
3	29014	21	1599
3	29032	21	1600
3	29050	21	1601
3	29068	21	1602
3	29086	21	1603
3	29104	21	1604
3	29122	21	1605
3	29140	21	1606
3	29158	21	1607
3	29176	21	1608
3	29194	21	1609
3	29212	21	1610
3	29230	21	1611
3	29248	21	1612
3	29266	21	1613
3	29284	21	1614
3	29302	21	1615
3	29320	21	1616
3	29338	21	1617
3	29356	21	1618
3	29374	21	1619
3	29392	21	1620
3	29410	21	1621
3	29428	21	1622
3	29446	21	1623
3	29464	21	1624
3	29482	21	1625
3	29500	21	1626
3	29518	21	1627
3	29536	21	1628
3	29554	21	1629
3	29572	21	1630
3	29590	21	1631
3	29608	21	1632
3	29626	21	1633
3	29644	21	1634
3	29662	21	1635
3	29680	21	1636
3	29698	21	1637
3	29716	21	1638
3	29734	21	1639
3	29752	21	1640
3	29770	21	1641
3	29788	21	1642
3	29806	21	1643
3	29824	21	1644
3	29842	21	1645
3	29860	21	1646
3	29878	21	1647
3	29896	21	1648
3	29914	21	1649
3	29932	21	1650
3	29950	21	1651
3	29968	21	1652
3	29986	21	1653
3	30004	21	1654
3	30022	21	1655
3	30040	21	1656
3	30058	21	1657
3	30076	21	1658
3	30094	21	1659
3	30112	21	1660
3	30130	21	1661
3	30148	21	1662
3	30166	21	1663
3	30184	21	1664
3	30202	21	1665
3	30220	21	1666
3	30238	21	1667
3	30256	21	1668
3	30274	21	1669
3	30292	21	1670
3	30310	21	1671
3	30328	21	1672
3	30346	21	1673
3	30364	21	1674
3	30382	21	1675
3	30400	21	1676
3	30418	21	1677
3	30436	21	1678
3	30454	21	1679
3	30472	21	1680
3	30490	21	1681
3	30508	21	1682
3	30526	21	1683
3	30544	21	1684
3	30562	21	1685
3	30580	21	1686
3	30598	21	1687
3	30616	21	1688
3	30634	21	1689
3	30652	21	1690
3	30670	21	1691
3	30688	21	1692
3	30706	21	1693
3	30724	21	1694
3	30742	21	1695
3	30760	21	1696
3	30778	21	1697
3	30796	21	1698
3	30814	21	1699
3	30832	21	1700
3	30850	21	1701
3	30868	21	1702
3	30886	21	1703
3	30904	21	1704
3	30922	21	1705
3	30940	21	1706
3	30958	21	1707
3	30976	21	1708
3	30994	21	1709
3	31012	21	1710
3	31030	21	1711
3	31048	21	1712
3	31066	21	1713
3	31084	21	1714
3	31102	21	1715
3	31120	21	1716
3	31138	21	1717
3	31156	21	1718
3	31174	21	1719
3	31192	21	1720
3	31210	21	1721
3	31228	21	1722
3	31246	21	1723
3	31264	21	1724
3	31282	21	1725
3	31300	21	1726
3	31318	21	1727
3	31336	21	1728
3	31354	21	1729
3	31372	21	1730
3	31390	21	1731
3	31408	21	1732
3	31426	21	1733
3	31444	21	1734
3	31462	21	1735
3	31480	21	1736
3	31498	21	1737
3	31516	21	1738
3	31534	21	1739
3	31552	21	1740
3	31570	21	1741
3	31588	21	1742
3	31606	21	1743
3	31624	21	1744
3	31642	21	1745
3	31660	21	1746
3	31678	21	1747
3	31696	21	1748
3	31714	21	1749
3	31732	21	1750
3	31750	21	1751
3	31768	21	1752
3	31786	21	1753
3	31804	21	1754
3	31822	21	1755
3	31840	21	1756
3	31858	21	1757
3	31876	21	1758
3	31894	21	1759
3	31912	21	1760
3	31930	21	1761
3	31948	21	1762
3	31966	21	1763
3	31984	21	1764
3	32002	21	1765
3	32020	21	1766
3	32038	21	1767
3	32056	21	1768
3	32074	21	1769
3	32092	21	1770
3	32110	21	1771
3	32128	21	1772
3	32146	21	1773
3	32164	21	1774
3	32182	21	1775
3	32200	21	1776
3	32218	21	1777
3	32236	21	1778
3	32254	21	1779
3	32272	21	1780
3	32290	21	1781
3	32308	21	1782
3	32326	21	1783
3	32344	21	1784
3	32362	21	1785
3	32380	21	1786
3	32398	21	1787
3	32416	21	1788
3	32434	21	1789
3	32452	21	1790
3	32470	21	1791
3	32488	21	1792
3	32506	21	1793
3	32524	21	1794
3	32542	21	1795
3	32560	21	1796
3	32578	21	1797
3	32596	21	1798
3	32614	21	1799
3	32632	21	1800
3	32650	21	1801
3	32668	21	1802
3	32686	21	1803
3	32704	21	1804
3	32722	21	1805
3	32740	21	1806
3	32758	21	1807
3	32776	21	1808
3	32794	21	1809
3	32812	21	1810
3	32830	21	1811
3	32848	21	1812
3	32866	21	1813
3	32884	21	1814
3	32902	21	1815
3	32920	21	1816
3	32938	21	1817
3	32956	21	1818
3	32974	21	1819
3	32992	21	1820
3	33010	21	1821
3	33028	21	1822
3	33046	21	1823
3	33064	21	1824
3	33082	21	1825
3	33100	21	1826
3	33118	21	1827
3	33136	21	1828
3	33154	21	1829
3	33172	21	1830
3	33190	21	1831
3	33208	21	1832
3	33226	21	1833
3	33244	21	1834
3	33262	21	1835
3	33280	21	1836
3	33298	21	1837
3	33316	21	1838
3	33334	21	1839
3	33352	21	1840
3	33370	21	1841
3	33388	21	1842
3	33406	21	1843
3	33424	21	1844
3	33442	21	1845
3	33460	21	1846
3	33478	21	1847
3	33496	21	1848
3	33514	21	1849
3	33532	21	1850
3	33550	21	1851
3	33568	21	1852
3	33586	21	1853
3	33604	21	1854
3	33622	21	1855
3	33640	21	1856
3	33658	21	1857
3	33676	21	1858
3	33694	21	1859
3	33712	21	1860
3	33730	21	1861
3	33748	21	1862
3	33766	21	1863
3	33784	21	1864
3	33802	21	1865
3	33820	21	1866
3	33838	21	1867
3	33856	21	1868
3	33874	21	1869
3	33892	21	1870
3	33910	21	1871
3	33928	21	1872
3	33946	21	1873
3	33964	21	1874
3	33982	21	1875
3	34000	21	1876
3	34018	21	1877
3	34036	21	1878
3	34054	21	1879
3	34072	21	1880
3	34090	21	1881
3	34108	21	1882
3	34126	21	1883
3	34144	21	1884
3	34162	21	1885
3	34180	21	1886
3	34198	21	1887
3	34216	21	1888
3	34234	21	1889
3	34252	21	1890
3	34270	21	1891
3	34288	21	1892
3	34306	21	1893
3	34324	21	1894
3	34342	21	1895
3	34360	21	1896
3	34378	21	1897
3	34396	21	1898
3	34414	21	1899
3	34432	21	1900
3	34450	21	1901
3	34468	21	1902
3	34486	21	1903
3	34504	21	1904
3	34522	21	1905
3	34540	21	1906
3	34558	21	1907
3	34576	21	1908
3	34594	21	1909
3	34612	21	1910
3	34630	21	1911
3	34648	21	1912
3	34666	21	1913
3	34684	21	1914
3	34702	21	1915
3	34720	21	1916
3	34738	21	1917
3	34756	21	1918
3	34774	21	1919
3	34792	21	1920
3	34810	21	1921
3	34828	21	1922
3	34846	21	1923
3	34864	21	1924
3	34882	21	1925
3	34900	21	1926
3	34918	21	1927
3	34936	21	1928
3	34954	21	1929
3	34972	21	1930
3	34990	21	1931
3	35008	21	1932
3	35026	21	1933
3	35044	21	1934
3	35062	21	1935
3	35080	21	1936
3	35098	21	1937
3	35116	21	1938
3	35134	21	1939
3	35152	21	1940
3	35170	21	1941
3	35188	21	1942
3	35206	21	1943
3	35224	21	1944
3	35242	21	1945
3	35260	21	1946
3	35278	21	1947
3	35296	21	1948
3	35314	21	1949
3	35332	21	1950
3	35350	21	1951
3	35368	21	1952
3	35386	21	1953
3	35404	21	1954
3	35422	21	1955
3	35440	21	1956
3	35458	21	1957
3	35476	21	1958
3	35494	21	1959
3	35512	21	1960
3	35530	21	1961
3	35548	21	1962
3	35566	21	1963
3	35584	21	1964
3	35602	21	1965
3	35620	21	1966
3	35638	21	1967
3	35656	21	1968
3	35674	21	1969
3	35692	21	1970
3	35710	21	1971
3	35728	21	1972
3	35746	21	1973
3	35764	21	1974
3	35782	21	1975
3	35800	21	1976
3	35818	21	1977
3	35836	21	1978
3	35854	21	1979
3	35872	21	1980
3	35890	21	1981
3	35908	21	1982
3	35926	21	1983
3	35944	21	1984
3	35962	21	1985
3	35980	21	1986
3	35998	21	1987
3	36016	21	1988
3	36034	21	1989
3	36052	21	1990
3	36070	21	1991
3	36088	21	1992
3	36106	21	1993
3	36124	21	1994
3	36142	21	1995
3	36160	21	1996
3	36178	21	1997
3	36196	21	1998
3	36214	21	1999
3	36232	21	2000
3	36250	21	2001
3	36268	21	2002
3	36286	21	2003
3	36304	21	2004
3	36322	21	2005
3	36340	21	2006
3	36358	21	2007
3	36376	21	2008
3	36394	21	2009
3	36412	21	2010
3	36430	21	2011
3	36448	21	2012
3	36466	21	2013
3	36484	21	2014
3	36502	21	2015
3	36520	21	2016
3	36538	21	2017
3	36556	21	2018
3	36574	21	2019
3	36592	21	2020
3	36610	21	2021
3	36628	21	2022
3	36646	21	2023
3	36664	21	2024
3	36682	21	2025
3	36700	21	2026
3	36718	21	2027
3	36736	21	2028
3	36754	21	2029
3	36772	21	2030
3	36790	21	2031
3	36808	21	2032
3	36826	21	2033
3	36844	21	2034
3	36862	21	2035
3	36880	21	2036
3	36898	21	2037
3	36916	21	2038
3	36934	21	2039
3	36952	21	2040
3	36970	21	2041
3	36988	21	2042
3	37006	21	2043
3	37024	21	2044
3	37042	21	2045
3	37060	21	2046
3	37078	21	2047
3	37096	21	2048
3	37114	21	2049
3	37132	21	2050
3	37150	21	2051
3	37168	21	2052
3	37186	21	2053
3	37204	21	2054
3	37222	21	2055
3	37240	21	2056
3	37258	21	2057
3	37276	21	2058
3	37294	21	2059
3	37312	21	2060
3	37330	21	2061
3	37348	21	2062
3	37366	21	2063
3	37384	21	2064
3	37402	21	2065
3	37420	21	2066
3	37438	21	2067
3	37456	21	2068
3	37474	21	2069
3	37492	21	2070
3	37510	21	2071
3	37528	21	2072
3	37546	21	2073
3	37564	21	2074
3	37582	21	2075
3	37600	21	2076
3	37618	21	2077
3	37636	21	2078
3	37654	21	2079
3	37672	21	2080
3	37690	21	2081
3	37708	21	2082
3	37726	21	2083
3	37744	21	2084
3	37762	21	2085
3	37780	21	2086
3	37798	21	2087
3	37816	21	2088
3	37834	21	2089
3	37852	21	2090
3	37870	21	2091
3	37888	21	2092
3	37906	21	2093
3	37924	21	2094
3	37942	21	2095
3	37960	21	2096
3	37978	21	2097
3	37996	21	2098
3	38014	21	2099
3	38032	21	2100
3	38050	21	2101
3	38068	21	2102
3	38086	21	2103
3	38104	21	2104
3	38122	21	2105
3	38140	21	2106
3	38158	21	2107
3	38176	21	2108
3	38194	21	2109
3	38212	21	2110
3	38230	21	2111
3	38248	21	2112
3	38266	21	2113
3	38284	21	2114
3	38302	21	2115
3	38320	21	2116
3	38338	21	2117
3	38356	21	2118
3	38374	21	2119
3	38392	21	2120
3	38410	21	2121
3	38428	21	2122
3	38446	21	2123
3	38464	21	2124
3	38482	21	2125
3	38500	21	2126
3	38518	21	2127
3	38536	21	2128
3	38554	21	2129
3	38572	21	2130
3	38590	21	2131
3	38608	21	2132
3	38626	21	2133
3	38644	21	2134
3	38662	21	2135
3	38680	21	2136
3	38698	21	2137
3	38716	21	2138
3	38734	21	2139
3	38752	21	2140
3	38770	21	2141
3	38788	21	2142
3	38806	21	2143
3	38824	21	2144
3	38842	21	2145
3	38860	21	2146
3	38878	21	2147
3	38896	21	2148
3	38914	21	2149
3	38932	21	2150
3	38950	21	2151
3	38968	21	2152
3	38986	21	2153
3	39004	21	2154
3	39022	21	2155
3	39040	21	2156
3	39058	21	2157
3	39076	21	2158
3	39094	21	2159
3	39112	21	2160
3	39130	21	2161
3	39148	21	2162
3	39166	21	2163
3	39184	21	2164
3	39202	21	2165
3	39220	21	2166
3	39238	21	2167
3	39256	21	2168
3	39274	21	2169
3	39292	21	2170
3	39310	21	2171
3	39328	21	2172
3	39346	21	2173
3	39364	21	2174
3	39382	21	2175
3	39400	21	2176
3	39418	21	2177
3	39436	21	2178
3	39454	21	2179
3	39472	21	2180
3	39490	21	2181
3	39508	21	2182
3	39526	21	2183
3	39544	21	2184
3	39562	21	2185
3	39580	21	2186
3	39598	21	2187
3	39616	21	2188
3	39634	21	2189
3	39652	21	2190
3	39670	21	2191
3	39688	21	2192
3	39706	21	2193
3	39724	21	2194
3	39742	21	2195
3	39760	21	2196
3	39778	21	2197
3	39796	21	2198
3	39814	21	2199
3	39832	21	2200
3	39850	21	2201
3	39868	21	2202
3	39886	21	2203
3	39904	21	2204
3	39922	21	2205
3	39940	21	2206
3	39958	21	2207
3	39976	21	2208
3	39994	21	2209
3	40012	21	2210
3	40030	21	2211
3	40048	21	2212
3	40066	21	2213
3	40084	21	2214
3	40102	21	2215
3	40120	21	2216
3	40138	21	2217
3	40156	21	2218
3	40174	21	2219
3	40192	21	2220
3	40210	21	2221
3	40228	21	2222
3	40246	21	2223
3	40264	21	2224
3	40282	21	2225
3	40300	21	2226
3	40318	21	2227
3	40336	21	2228
3	40354	21	2229
3	40372	21	2230
3	40390	21	2231
3	40408	21	2232
3	40426	21	2233
3	40444	21	2234
3	40462	21	2235
3	40480	21	2236
3	40498	21	2237
3	40516	21	2238
3	40534	21	2239
3	40552	21	2240
3	40570	21	2241
3	40588	21	2242
3	40606	21	2243
3	40624	21	2244
3	40642	21	2245
3	40660	21	2246
3	40678	21	2247
3	40696	21	2248
3	40714	21	2249
3	40732	21	2250
3	40750	21	2251
3	40768	21	2252
3	40786	21	2253
3	40804	21	2254
3	40822	21	2255
3	40840	21	2256
3	40858	21	2257
3	40876	21	2258
3	40894	21	2259
3	40912	21	2260
3	40930	21	2261
3	40948	21	2262
3	40966	21	2263
3	40984	21	2264
3	41002	21	2265
3	41020	21	2266
3	41038	21	2267
3	41056	21	2268
3	41074	21	2269
3	41092	21	2270
3	41110	21	2271
3	41128	21	2272
3	41146	21	2273
3	41164	21	2274
3	41182	21	2275
3	41200	21	2276
3	41218	21	2277
3	41236	21	2278
3	41254	21	2279
3	41272	21	2280
3	41290	21	2281
3	41308	21	2282
3	41326	21	2283
3	41344	21	2284
3	41362	21	2285
3	41380	21	2286
3	41398	21	2287
3	41416	21	2288
3	41434	21	2289
3	41452	21	2290
3	41470	21	2291
3	41488	21	2292
3	41506	21	2293
3	41524	21	2294
3	41542	21	2295
3	41560	21	2296
3	41578	21	2297
3	41596	21	2298
3	41614	21	2299
3	41632	21	2300
3	41650	21	2301
3	41668	21	2302
3	41686	21	2303
3	41704	21	2304
3	41722	21	2305
3	41740	21	2306
3	41758	21	2307
3	41776	21	2308
3	41794	21	2309
3	41812	21	2310
3	41830	21	2311
3	41848	21	2312
3	41866	21	2313
3	41884	21	2314
3	41902	21	2315
3	41920	21	2316
3	41938	21	2317
3	41956	21	2318
3	41974	21	2319
3	41992	21	2320
3	42010	21	2321
3	42028	21	2322
3	42046	21	2323
3	42064	21	2324
3	42082	21	2325
3	42100	21	2326
3	42118	21	2327
3	42136	21	2328
3	42154	21	2329
3	42172	21	2330
3	42190	21	2331
3	42208	21	2332
3	42226	21	2333
3	42244	21	2334
3	42262	21	2335
3	42280	21	2336
3	42298	21	2337
3	42316	21	2338
3	42334	21	2339
3	42352	21	2340
3	42370	21	2341
3	42388	21	2342
3	42406	21	2343
3	42424	21	2344
3	42442	21	2345
3	42460	21	2346
3	42478	21	2347
3	42496	21	2348
3	42514	21	2349
3	42532	21	2350
3	42550	21	2351
3	42568	21	2352
3	42586	21	2353
3	42604	21	2354
3	42622	21	2355
3	42640	21	2356
3	42658	21	2357
3	42676	21	2358
3	42694	21	2359
3	42712	21	2360
3	42730	21	2361
3	42748	21	2362
3	42766	21	2363
3	42784	21	2364
3	42802	21	2365
3	42820	21	2366
3	42838	21	2367
3	42856	21	2368
3	42874	21	2369
3	42892	21	2370
3	42910	21	2371
3	42928	21	2372
3	42946	21	2373
3	42964	21	2374
3	42982	21	2375
3	43000	21	2376
3	43018	21	2377
3	43036	21	2378
3	43054	21	2379
3	43072	21	2380
3	43090	21	2381
3	43108	21	2382
3	43126	21	2383
3	43144	21	2384
3	43162	21	2385
3	43180	21	2386
3	43198	21	2387
3	43216	21	2388
3	43234	21	2389
3	43252	21	2390
3	43270	21	2391
3	43288	21	2392
3	43306	21	2393
3	43324	21	2394
3	43342	21	2395
3	43360	21	2396
3	43378	21	2397
3	43396	21	2398
3	43414	21	2399
3	43432	21	2400
3	43450	21	2401
3	43468	21	2402
3	43486	21	2403
3	43504	21	2404
3	43522	21	2405
3	43540	21	2406
3	43558	21	2407
3	43576	21	2408
3	43594	21	2409
3	43612	21	2410
3	43630	21	2411
3	43648	21	2412
3	43666	21	2413
3	43684	21	2414
3	43702	21	2415
3	43720	21	2416
3	43738	21	2417
3	43756	21	2418
3	43774	21	2419
3	43792	21	2420
3	43810	21	2421
3	43828	21	2422
3	43846	21	2423
3	43864	21	2424
3	43882	21	2425
3	43900	21	2426
3	43918	21	2427
3	43936	21	2428
3	43954	21	2429
3	43972	21	2430
3	43990	21	2431
3	44008	21	2432
3	44026	21	2433
3	44044	21	2434
3	44062	21	2435
3	44080	21	2436
3	44098	21	2437
3	44116	21	2438
3	44134	21	2439
3	44152	21	2440
3	44170	21	2441
3	44188	21	2442
3	44206	21	2443
3	44224	21	2444
3	44242	21	2445
3	44260	21	2446
3	44278	21	2447
3	44296	21	2448
3	44314	21	2449
3	44332	21	2450
3	44350	21	2451
3	44368	21	2452
3	44386	21	2453
3	44404	21	2454
3	44422	21	2455
3	44440	21	2456
3	44458	21	2457
3	44476	21	2458
3	44494	21	2459
3	44512	21	2460
3	44530	21	2461
3	44548	21	2462
3	44566	21	2463
3	44584	21	2464
3	44602	21	2465
3	44620	21	2466
3	44638	21	2467
3	44656	21	2468
3	44674	21	2469
3	44692	21	2470
3	44710	21	2471
3	44728	21	2472
3	44746	21	2473
3	44764	21	2474
3	44782	21	2475
3	44800	21	2476
3	44818	21	2477
3	44836	21	2478
3	44854	21	2479
3	44872	21	2480
3	44890	21	2481
3	44908	21	2482
3	44926	21	2483
3	44944	21	2484
3	44962	21	2485
3	44980	21	2486
3	44998	21	2487
3	45016	21	2488
3	45034	21	2489
3	45052	21	2490
3	45070	21	2491
3	45088	21	2492
3	45106	21	2493
3	45124	21	2494
3	45142	21	2495
3	45160	21	2496
3	45178	21	2497
3	45196	21	2498
3	45214	21	2499
3	45232	21	2500
3	45250	21	2501
3	45268	21	2502
3	45286	21	2503
3	45304	21	2504
3	45322	21	2505
3	45340	21	2506
3	45358	21	2507
3	45376	21	2508
3	45394	21	2509
3	45412	21	2510
3	45430	21	2511
3	45448	21	2512
3	45466	21	2513
3	45484	21	2514
3	45502	21	2515
3	45520	21	2516
3	45538	21	2517
3	45556	21	2518
3	45574	21	2519
3	45592	21	2520
3	45610	21	2521
3	45628	21	2522
3	45646	21	2523
3	45664	21	2524
3	45682	21	2525
3	45700	21	2526
3	45718	21	2527
3	45736	21	2528
3	45754	21	2529
3	45772	21	2530
3	45790	21	2531
3	45808	21	2532
3	45826	21	2533
3	45844	21	2534
3	45862	21	2535
3	45880	21	2536
3	45898	21	2537
3	45916	21	2538
3	45934	21	2539
3	45952	21	2540
3	45970	21	2541
3	45988	21	2542
3	46006	21	2543
3	46024	21	2544
3	46042	21	2545
3	46060	21	2546
3	46078	21	2547
3	46096	21	2548
3	46114	21	2549
3	46132	21	2550
3	46150	21	2551
3	46168	21	2552
3	46186	21	2553
3	46204	21	2554
3	46222	21	2555
3	46240	21	2556
3	46258	21	2557
3	46276	21	2558
3	46294	21	2559
3	46312	21	2560
3	46330	21	2561
3	46348	21	2562
3	46366	21	2563
3	46384	21	2564
3	46402	21	2565
3	46420	21	2566
3	46438	21	2567
3	46456	21	2568
3	46474	21	2569
3	46492	21	2570
3	46510	21	2571
3	46528	21	2572
3	46546	21	2573
3	46564	21	2574
3	46582	21	2575
3	46600	21	2576
3	46618	21	2577
3	46636	21	2578
3	46654	21	2579
3	46672	21	2580
3	46690	21	2581
3	46708	21	2582
3	46726	21	2583
3	46744	21	2584
3	46762	21	2585
3	46780	21	2586
3	46798	21	2587
3	46816	21	2588
3	46834	21	2589
3	46852	21	2590
3	46870	21	2591
3	46888	21	2592
3	46906	21	2593
3	46924	21	2594
3	46942	21	2595
3	46960	21	2596
3	46978	21	2597
3	46996	21	2598
3	47014	21	2599
3	47032	21	2600
3	47050	21	2601
3	47068	21	2602
3	47086	21	2603
3	47104	21	2604
3	47122	21	2605
3	47140	21	2606
3	47158	21	2607
3	47176	21	2608
3	47194	21	2609
3	47212	21	2610
3	47230	21	2611
3	47248	21	2612
3	47266	21	2613
3	47284	21	2614
3	47302	21	2615
3	47320	21	2616
3	47338	21	2617
3	47356	21	2618
3	47374	21	2619
3	47392	21	2620
3	47410	21	2621
3	47428	21	2622
3	47446	21	2623
3	47464	21	2624
3	47482	21	2625
3	47500	21	2626
3	47518	21	2627
3	47536	21	2628
3	47554	21	2629
3	47572	21	2630
3	47590	21	2631
3	47608	21	2632
3	47626	21	2633
3	47644	21	2634
3	47662	21	2635
3	47680	21	2636
3	47698	21	2637
3	47716	21	2638
3	47734	21	2639
3	47752	21	2640
3	47770	21	2641
3	47788	21	2642
3	47806	21	2643
3	47824	21	2644
3	47842	21	2645
3	47860	21	2646
3	47878	21	2647
3	47896	21	2648
3	47914	21	2649
3	47932	21	2650
3	47950	21	2651
3	47968	21	2652
3	47986	21	2653
3	48004	21	2654
3	48022	21	2655
3	48040	21	2656
3	48058	21	2657
3	48076	21	2658
3	48094	21	2659
3	48112	21	2660
3	48130	21	2661
3	48148	21	2662
3	48166	21	2663
3	48184	21	2664
3	48202	21	2665
3	48220	21	2666
3	48238	21	2667
3	48256	21	2668
3	48274	21	2669
3	48292	21	2670
3	48310	21	2671
3	48328	21	2672
3	48346	21	2673
3	48364	21	2674
3	48382	21	2675
3	48400	21	2676
3	48418	21	2677
3	48436	21	2678
3	48454	21	2679
3	48472	21	2680
3	48490	21	2681
3	48508	21	2682
3	48526	21	2683
3	48544	21	2684
3	48562	21	2685
3	48580	21	2686
3	48598	21	2687
3	48616	21	2688
3	48634	21	2689
3	48652	21	2690
3	48670	21	2691
3	48688	21	2692
3	48706	21	2693
3	48724	21	2694
3	48742	21	2695
3	48760	21	2696
3	48778	21	2697
3	48796	21	2698
3	48814	21	2699
3	48832	21	2700
3	48850	21	2701
3	48868	21	2702
3	48886	21	2703
3	48904	21	2704
3	48922	21	2705
3	48940	21	2706
3	48958	21	2707
3	48976	21	2708
3	48994	21	2709
3	49012	21	2710
3	49030	21	2711
3	49048	21	2712
3	49066	21	2713
3	49084	21	2714
3	49102	21	2715
3	49120	21	2716
3	49138	21	2717
3	49156	21	2718
3	49174	21	2719
3	49192	21	2720
3	49210	21	2721
3	49228	21	2722
3	49246	21	2723
3	49264	21	2724
3	49282	21	2725
3	49300	21	2726
3	49318	21	2727
3	49336	21	2728
3	49354	21	2729
3	49372	21	2730
3	49390	21	2731
3	49408	21	2732
3	49426	21	2733
3	49444	21	2734
3	49462	21	2735
3	49480	21	2736
3	49498	21	2737
3	49516	21	2738
3	49534	21	2739
3	49552	21	2740
3	49570	21	2741
3	49588	21	2742
3	49606	21	2743
3	49624	21	2744
3	49642	21	2745
3	49660	21	2746
3	49678	21	2747
3	49696	21	2748
3	49714	21	2749
3	49732	21	2750
3	49750	21	2751
3	49768	21	2752
3	49786	21	2753
3	49804	21	2754
3	49822	21	2755
3	49840	21	2756
3	49858	21	2757
3	49876	21	2758
3	49894	21	2759
3	49912	21	2760
3	49930	21	2761
3	49948	21	2762
3	49966	21	2763
3	49984	21	2764
3	50002	21	2765
3	50020	21	2766
3	50038	21	2767
3	50056	21	2768
3	50074	21	2769
3	50092	21	2770
3	50110	21	2771
3	50128	21	2772
3	50146	21	2773
3	50164	21	2774
3	50182	21	2775
3	50200	21	2776
3	50218	21	2777
3	50236	21	2778
3	50254	21	2779
3	50272	21	2780
3	50290	21	2781
3	50308	21	2782
3	50326	21	2783
3	50344	21	2784
3	50362	21	2785
3	50380	21	2786
3	50398	21	2787
3	50416	21	2788
3	50434	21	2789
3	50452	21	2790
3	50470	21	2791
3	50488	21	2792
3	50506	21	2793
3	50524	21	2794
3	50542	21	2795
3	50560	21	2796
3	50578	21	2797
3	50596	21	2798
3	50614	21	2799
3	50632	21	2800
3	50650	21	2801
3	50668	21	2802
3	50686	21	2803
3	50704	21	2804
3	50722	21	2805
3	50740	21	2806
3	50758	21	2807
3	50776	21	2808
3	50794	21	2809
3	50812	21	2810
3	50830	21	2811
3	50848	21	2812
3	50866	21	2813
3	50884	21	2814
3	50902	21	2815
3	50920	21	2816
3	50938	21	2817
3	50956	21	2818
3	50974	21	2819
3	50992	21	2820
3	51010	21	2821
3	51028	21	2822
3	51046	21	2823
3	51064	21	2824
3	51082	21	2825
3	51100	21	2826
3	51118	21	2827
3	51136	21	2828
3	51154	21	2829
3	51172	21	2830
3	51190	21	2831
3	51208	21	2832
3	51226	21	2833
3	51244	21	2834
3	51262	21	2835
3	51280	21	2836
3	51298	21	2837
3	51316	21	2838
3	51334	21	2839
3	51352	21	2840
3	51370	21	2841
3	51388	21	2842
3	51406	21	2843
3	51424	21	2844
3	51442	21	2845
3	51460	21	2846
3	51478	21	2847
3	51496	21	2848
3	51514	21	2849
3	51532	21	2850
3	51550	21	2851
3	51568	21	2852
3	51586	21	2853
3	51604	21	2854
3	51622	21	2855
3	51640	21	2856
3	51658	21	2857
3	51676	21	2858
3	51694	21	2859
3	51712	21	2860
3	51730	21	2861
3	51748	21	2862
3	51766	21	2863
3	51784	21	2864
3	51802	21	2865
3	51820	21	2866
3	51838	21	2867
3	51856	21	2868
3	51874	21	2869
3	51892	21	2870
3	51910	21	2871
3	51928	21	2872
3	51946	21	2873
3	51964	21	2874
3	51982	21	2875
3	52000	21	2876
3	52018	21	2877
3	52036	21	2878
3	52054	21	2879
3	52072	21	2880
3	52090	21	2881
3	52108	21	2882
3	52126	21	2883
3	52144	21	2884
3	52162	21	2885
3	52180	21	2886
3	52198	21	2887
3	52216	21	2888
3	52234	21	2889
3	52252	21	2890
3	52270	21	2891
3	52288	21	2892
3	52306	21	2893
3	52324	21	2894
3	52342	21	2895
3	52360	21	2896
3	52378	21	2897
3	52396	21	2898
3	52414	21	2899
3	52432	21	2900
3	52450	21	2901
3	52468	21	2902
3	52486	21	2903
3	52504	21	2904
3	52522	21	2905
3	52540	21	2906
3	52558	21	2907
3	52576	21	2908
3	52594	21	2909
3	52612	21	2910
3	52630	21	2911
3	52648	21	2912
3	52666	21	2913
3	52684	21	2914
3	52702	21	2915
3	52720	21	2916
3	52738	21	2917
3	52756	21	2918
3	52774	21	2919
3	52792	21	2920
3	52810	21	2921
3	52828	21	2922
3	52846	21	2923
3	52864	21	2924
3	52882	21	2925
3	52900	21	2926
3	52918	21	2927
3	52936	21	2928
3	52954	21	2929
3	52972	21	2930
3	52990	21	2931
3	53008	21	2932
3	53026	21	2933
3	53044	21	2934
3	53062	21	2935
3	53080	21	2936
3	53098	21	2937
3	53116	21	2938
3	53134	21	2939
3	53152	21	2940
3	53170	21	2941
3	53188	21	2942
3	53206	21	2943
3	53224	21	2944
3	53242	21	2945
3	53260	21	2946
3	53278	21	2947
3	53296	21	2948
3	53314	21	2949
3	53332	21	2950
3	53350	21	2951
3	53368	21	2952
3	53386	21	2953
3	53404	21	2954
3	53422	21	2955
3	53440	21	2956
3	53458	21	2957
3	53476	21	2958
3	53494	21	2959
3	53512	21	2960
3	53530	21	2961
3	53548	21	2962
3	53566	21	2963
3	53584	21	2964
3	53602	21	2965
3	53620	21	2966
3	53638	21	2967
3	53656	21	2968
3	53674	21	2969
3	53692	21	2970
3	53710	21	2971
3	53728	21	2972
3	53746	21	2973
3	53764	21	2974
3	53782	21	2975
3	53800	21	2976
3	53818	21	2977
3	53836	21	2978
3	53854	21	2979
3	53872	21	2980
3	53890	21	2981
3	53908	21	2982
3	53926	21	2983
3	53944	21	2984
3	53962	21	2985
3	53980	21	2986
3	53998	21	2987
3	54016	21	2988
3	54034	21	2989
3	54052	21	2990
3	54070	21	2991
3	54088	21	2992
3	54106	21	2993
3	54124	21	2994
3	54142	21	2995
3	54160	21	2996
3	54178	21	2997
3	54196	21	2998
3	54214	21	2999
3	54232	21	3000
3	54250	21	3001
3	54268	21	3002
3	54286	21	3003
3	54304	21	3004
3	54322	21	3005
3	54340	21	3006
3	54358	21	3007
3	54376	21	3008
3	54394	21	3009
3	54412	21	3010
3	54430	21	3011
3	54448	21	3012
3	54466	21	3013
3	54484	21	3014
3	54502	21	3015
3	54520	21	3016
3	54538	21	3017
3	54556	21	3018
3	54574	21	3019
3	54592	21	3020
3	54610	21	3021
3	54628	21	3022
3	54646	21	3023
3	54664	21	3024
3	54682	21	3025
3	54700	21	3026
3	54718	21	3027
3	54736	21	3028
3	54754	21	3029
3	54772	21	3030
3	54790	21	3031
3	54808	21	3032
3	54826	21	3033
3	54844	21	3034
3	54862	21	3035
3	54880	21	3036
3	54898	21	3037
3	54916	21	3038
3	54934	21	3039
3	54952	21	3040
3	54970	21	3041
3	54988	21	3042
3	55006	21	3043
3	55024	21	3044
3	55042	21	3045
3	55060	21	3046
3	55078	21	3047
3	55096	21	3048
3	55114	21	3049
3	55132	21	3050
3	55150	21	3051
3	55168	21	3052
3	55186	21	3053
3	55204	21	3054
3	55222	21	3055
3	55240	21	3056
3	55258	21	3057
3	55276	21	3058
3	55294	21	3059
3	55312	21	3060
3	55330	21	3061
3	55348	21	3062
3	55366	21	3063
3	55384	21	3064
3	55402	21	3065
3	55420	21	3066
3	55438	21	3067
3	55456	21	3068
3	55474	21	3069
3	55492	21	3070
3	55510	21	3071
3	55528	21	3072
3	55546	21	3073
3	55564	21	3074
3	55582	21	3075
3	55600	21	3076
3	55618	21	3077
3	55636	21	3078
3	55654	21	3079
3	55672	21	3080
3	55690	21	3081
3	55708	21	3082
3	55726	21	3083
3	55744	21	3084
3	55762	21	3085
3	55780	21	3086
3	55798	21	3087
3	55816	21	3088
3	55834	21	3089
3	55852	21	3090
3	55870	21	3091
3	55888	21	3092
3	55906	21	3093
3	55924	21	3094
3	55942	21	3095
3	55960	21	3096
3	55978	21	3097
3	55996	21	3098
3	56014	21	3099
3	56032	21	3100
3	56050	21	3101
3	56068	21	3102
3	56086	21	3103
3	56104	21	3104
3	56122	21	3105
3	56140	21	3106
3	56158	21	3107
3	56176	21	3108
3	56194	21	3109
3	56212	21	3110
3	56230	21	3111
3	56248	21	3112
3	56266	21	3113
3	56284	21	3114
3	56302	21	3115
3	56320	21	3116
3	56338	21	3117
3	56356	21	3118
3	56374	21	3119
3	56392	21	3120
3	56410	21	3121
3	56428	21	3122
3	56446	21	3123
3	56464	21	3124
3	56482	21	3125
3	56500	21	3126
3	56518	21	3127
3	56536	21	3128
3	56554	21	3129
3	56572	21	3130
3	56590	21	3131
3	56608	21	3132
3	56626	21	3133
3	56644	21	3134
3	56662	21	3135
3	56680	21	3136
3	56698	21	3137
3	56716	21	3138
3	56734	21	3139
3	56752	21	3140
3	56770	21	3141
3	56788	21	3142
3	56806	21	3143
3	56824	21	3144
3	56842	21	3145
3	56860	21	3146
3	56878	21	3147
3	56896	21	3148
3	56914	21	3149
3	56932	21	3150
3	56950	21	3151
3	56968	21	3152
3	56986	21	3153
3	57004	21	3154
3	57022	21	3155
3	57040	21	3156
3	57058	21	3157
3	57076	21	3158
3	57094	21	3159
3	57112	21	3160
3	57130	21	3161
3	57148	21	3162
3	57166	21	3163
3	57184	21	3164
3	57202	21	3165
3	57220	21	3166
3	57238	21	3167
3	57256	21	3168
3	57274	21	3169
3	57292	21	3170
3	57310	21	3171
3	57328	21	3172
3	57346	21	3173
3	57364	21	3174
3	57382	21	3175
3	57400	21	3176
3	57418	21	3177
3	57436	21	3178
3	57454	21	3179
3	57472	21	3180
3	57490	21	3181
3	57508	21	3182
3	57526	21	3183
3	57544	21	3184
3	57562	21	3185
3	57580	21	3186
3	57598	21	3187
3	57616	21	3188
3	57634	21	3189
3	57652	21	3190
3	57670	21	3191
3	57688	21	3192
3	57706	21	3193
3	57724	21	3194
3	57742	21	3195
3	57760	21	3196
3	57778	21	3197
3	57796	21	3198
3	57814	21	3199
3	57832	21	3200
3	57850	21	3201
3	57868	21	3202
3	57886	21	3203
3	57904	21	3204
3	57922	21	3205
3	57940	21	3206
3	57958	21	3207
3	57976	21	3208
3	57994	21	3209
3	58012	21	3210
3	58030	21	3211
3	58048	21	3212
3	58066	21	3213
3	58084	21	3214
3	58102	21	3215
3	58120	21	3216
3	58138	21	3217
3	58156	21	3218
3	58174	21	3219
3	58192	21	3220
3	58210	21	3221
3	58228	21	3222
3	58246	21	3223
3	58264	21	3224
3	58282	21	3225
3	58300	21	3226
3	58318	21	3227
3	58336	21	3228
3	58354	21	3229
3	58372	21	3230
3	58390	21	3231
3	58408	21	3232
3	58426	21	3233
3	58444	21	3234
3	58462	21	3235
3	58480	21	3236
3	58498	21	3237
3	58516	21	3238
3	58534	21	3239
3	58552	21	3240
3	58570	21	3241
3	58588	21	3242
3	58606	21	3243
3	58624	21	3244
3	58642	21	3245
3	58660	21	3246
3	58678	21	3247
3	58696	21	3248
3	58714	21	3249
3	58732	21	3250
3	58750	21	3251
3	58768	21	3252
3	58786	21	3253
3	58804	21	3254
3	58822	21	3255
3	58840	21	3256
3	58858	21	3257
3	58876	21	3258
3	58894	21	3259
3	58912	21	3260
3	58930	21	3261
3	58948	21	3262
3	58966	21	3263
3	58984	21	3264
3	59002	21	3265
3	59020	21	3266
3	59038	21	3267
3	59056	21	3268
3	59074	21	3269
3	59092	21	3270
3	59110	21	3271
3	59128	21	3272
3	59146	21	3273
3	59164	21	3274
3	59182	21	3275
3	59200	21	3276
3	59218	21	3277
3	59236	21	3278
3	59254	21	3279
3	59272	21	3280
3	59290	21	3281
3	59308	21	3282
3	59326	21	3283
3	59344	21	3284
3	59362	21	3285
3	59380	21	3286
3	59398	21	3287
3	59416	21	3288
3	59434	21	3289
3	59452	21	3290
3	59470	21	3291
3	59488	21	3292
3	59506	21	3293
3	59524	21	3294
3	59542	21	3295
3	59560	21	3296
3	59578	21	3297
3	59596	21	3298
3	59614	21	3299
3	59632	21	3300
3	59650	21	3301
3	59668	21	3302
3	59686	21	3303
3	59704	21	3304
3	59722	21	3305
3	59740	21	3306
3	59758	21	3307
3	59776	21	3308
3	59794	21	3309
3	59812	21	3310
3	59830	21	3311
3	59848	21	3312
3	59866	21	3313
3	59884	21	3314
3	59902	21	3315
3	59920	21	3316
3	59938	21	3317
3	59956	21	3318
3	59974	21	3319
3	59992	21	3320
3	60010	21	3321
3	60028	21	3322
3	60046	21	3323
3	60064	21	3324
3	60082	21	3325
3	60100	21	3326
3	60118	21	3327
3	60136	21	3328
3	60154	21	3329
3	60172	21	3330
3	60190	21	3331
3	60208	21	3332
3	60226	21	3333
3	60244	21	3334
3	60262	21	3335
3	60280	21	3336
3	60298	21	3337
3	60316	21	3338
3	60334	21	3339
3	60352	21	3340
3	60370	21	3341
3	60388	21	3342
3	60406	21	3343
3	60424	21	3344
3	60442	21	3345
3	60460	21	3346
3	60478	21	3347
3	60496	21	3348
3	60514	21	3349
3	60532	21	3350
3	60550	21	3351
3	60568	21	3352
3	60586	21	3353
3	60604	21	3354
3	60622	21	3355
3	60640	21	3356
3	60658	21	3357
3	60676	21	3358
3	60694	21	3359
3	60712	21	3360
3	60730	21	3361
3	60748	21	3362
3	60766	21	3363
3	60784	21	3364
3	60802	21	3365
3	60820	21	3366
3	60838	21	3367
3	60856	21	3368
3	60874	21	3369
3	60892	21	3370
3	60910	21	3371
3	60928	21	3372
3	60946	21	3373
3	60964	21	3374
3	60982	21	3375
3	61000	21	3376
3	61018	21	3377
3	61036	21	3378
3	61054	21	3379
3	61072	21	3380
3	61090	21	3381
3	61108	21	3382
3	61126	21	3383
3	61144	21	3384
3	61162	21	3385
3	61180	21	3386
3	61198	21	3387
3	61216	21	3388
3	61234	21	3389
3	61252	21	3390
3	61270	21	3391
3	61288	21	3392
3	61306	21	3393
3	61324	21	3394
3	61342	21	3395
3	61360	21	3396
3	61378	21	3397
3	61396	21	3398
3	61414	21	3399
3	61432	21	3400
3	61450	21	3401
3	61468	21	3402
3	61486	21	3403
3	61504	21	3404
3	61522	21	3405
3	61540	21	3406
3	61558	21	3407
3	61576	21	3408
3	61594	21	3409
3	61612	21	3410
3	61630	21	3411
3	61648	21	3412
3	61666	21	3413
3	61684	21	3414
3	61702	21	3415
3	61720	21	3416
3	61738	21	3417
3	61756	21	3418
3	61774	21	3419
3	61792	21	3420
3	61810	21	3421
3	61828	21	3422
3	61846	21	3423
3	61864	21	3424
3	61882	21	3425
3	61900	21	3426
3	61918	21	3427
3	61936	21	3428
3	61954	21	3429
3	61972	21	3430
3	61990	21	3431
3	62008	21	3432
3	62026	21	3433
3	62044	21	3434
3	62062	21	3435
3	62080	21	3436
3	62098	21	3437
3	62116	21	3438
3	62134	21	3439
3	62152	21	3440
3	62170	21	3441
3	62188	21	3442
3	62206	21	3443
3	62224	21	3444
3	62242	21	3445
3	62260	21	3446
3	62278	21	3447
3	62296	21	3448
3	62314	21	3449
3	62332	21	3450
3	62350	21	3451
3	62368	21	3452
3	62386	21	3453
3	62404	21	3454
3	62422	21	3455
3	62440	21	3456
3	62458	21	3457
3	62476	21	3458
3	62494	21	3459
3	62512	21	3460
3	62530	21	3461
3	62548	21	3462
3	62566	21	3463
3	62584	21	3464
3	62602	21	3465
3	62620	21	3466
3	62638	21	3467
3	62656	21	3468
3	62674	21	3469
3	62692	21	3470
3	62710	21	3471
3	62728	21	3472
3	62746	21	3473
3	62764	21	3474
3	62782	21	3475
3	62800	21	3476
3	62818	21	3477
3	62836	21	3478
3	62854	21	3479
3	62872	21	3480
3	62890	21	3481
3	62908	21	3482
3	62926	21	3483
3	62944	21	3484
3	62962	21	3485
[...]
96	88449	21	1258
96	88467	21	1258
96	88485	21	1258
96	88503	21	1258
96	88521	21	1258
96	88539	21	1258
96	88557	21	1258
96	88575	21	1258
96	88593	21	1258
96	88611	21	1258
96	88629	21	1258
96	88647	21	1258
96	88665	21	1258
96	88683	21	1258
96	88701	21	1258
96	88719	21	1258
96	88737	21	1258
96	88755	21	1258
96	88773	21	1258
96	88791	21	1258
96	88809	21	1258
96	88827	21	1258
96	88845	21	1258
96	88863	21	1258
96	88881	21	1258
96	88899	21	1258
96	88917	21	1258
96	88935	21	1258
96	88953	21	1258
96	88971	21	1258
96	88989	21	1258
96	89007	21	1258
96	89025	21	1258
96	89043	21	1258
96	89061	21	1258
96	89079	21	1258
96	89097	21	1258
96	89115	21	1258
96	89133	21	1258
96	89151	21	1258
96	89169	21	1258
96	89187	21	1258
96	89205	21	1258
96	89223	21	1258
96	89241	21	1258
96	89259	21	1258
96	89277	21	1258
96	89295	21	1258
96	89313	21	1258
96	89331	21	1258
96	89349	21	1258
96	89367	21	1258
96	89385	21	1258
96	89403	21	1258
96	89421	21	1258
96	89439	21	1258
96	89457	21	1258
96	89475	21	1258
96	89493	21	1258
96	89511	21	1258
96	89529	21	1258
96	89547	21	1258
96	89565	21	1258
96	89583	21	1258
96	89601	21	1258
96	89619	21	1258
96	89637	21	1258
96	89655	21	1258
96	89673	21	1258
96	89691	21	1258
96	89709	21	1258
96	89727	21	1258
96	89745	21	1258
96	89763	21	1258
96	89781	21	1258
96	89799	21	1258
96	89817	21	1258
96	89835	21	1258
96	89853	21	1258
96	89871	21	1258
96	89889	21	1258
96	89907	21	1258
96	89925	21	1258
96	89943	21	1258
96	89961	21	1258
96	89979	21	1258
96	89997	21	1258
96	90015	21	1258
96	90033	21	1258
96	90051	21	1258
96	90069	21	1258
96	90087	21	1258
96	90105	21	1258
96	90123	21	1258
96	90141	21	1258
96	90159	21	1258
96	90177	21	1258
96	90195	21	1258
96	90213	21	1258
96	90231	21	1258
96	90249	21	1258
96	90267	21	1258
96	90285	21	1258
96	90303	21	1258
96	90321	21	1258
96	90339	21	1258
96	90357	21	1258
96	90375	21	1258
96	90393	21	1258
96	90411	21	1258
96	90429	21	1258
96	90447	21	1258
96	90465	21	1258
96	90483	21	1258
96	90501	21	1258
96	90519	21	1258
96	90537	21	1258
96	90555	21	1258
96	90573	21	1258
96	90591	21	1258
96	90609	21	1258
96	90627	21	1258
96	90645	21	1258
96	90663	21	1258
96	90681	21	1258
96	90699	21	1258
96	90717	21	1258
96	90735	21	1258
96	90753	21	1258
96	90771	21	1258
96	90789	21	1258
96	90807	21	1258
96	90825	21	1258
96	90843	21	1258
96	90861	21	1258
96	90879	21	1258
96	90897	21	1258
96	90915	21	1258
96	90933	21	1258
96	90951	21	1258
96	90969	21	1258
96	90987	21	1258
96	91005	21	1258
96	91023	21	1258
96	91041	21	1258
96	91059	21	1258
96	91077	21	1258
96	91095	21	1258
96	91113	21	1258
96	91131	21	1258
96	91149	21	1258
96	91167	21	1258
96	91185	21	1258
96	91203	21	1258
96	91221	21	1258
96	91239	21	1258
96	91257	21	1258
96	91275	21	1258
96	91293	21	1258
96	91311	21	1258
96	91329	21	1258
96	91347	21	1258
96	91365	21	1258
96	91383	21	1258
96	91401	21	1258
96	91419	21	1258
96	91437	21	1258
96	91455	21	1258
96	91473	21	1258
96	91491	21	1258
96	91509	21	1258
96	91527	21	1258
96	91545	21	1258
96	91563	21	1258
96	91581	21	1258
96	91599	21	1258
96	91617	21	1258
96	91635	21	1258
96	91653	21	1258
96	91671	21	1258
96	91689	21	1258
96	91707	21	1258
96	91725	21	1258
96	91743	21	1258
96	91761	21	1258
96	91779	21	1258
96	91797	21	1258
96	91815	21	1258
96	91833	21	1258
96	91851	21	1258
96	91869	21	1258
96	91887	21	1258
96	91905	21	1258
96	91923	21	1258
96	91941	21	1258
96	91959	21	1258
96	91977	21	1258
96	91995	21	1258
96	92013	21	1258
96	92031	21	1258
96	92049	21	1258
96	92067	21	1258
96	92085	21	1258
96	92103	21	1258
96	92121	21	1258
96	92139	21	1258
96	92157	21	1258
96	92175	21	1258
96	92193	21	1258
96	92211	21	1258
96	92229	21	1258
96	92247	21	1258
96	92265	21	1258
96	92283	21	1258
96	92301	21	1258
96	92319	21	1258
96	92337	21	1258
96	92355	21	1258
96	92373	21	1258
96	92391	21	1258
96	92409	21	1258
96	92427	21	1258
96	92445	21	1258
96	92463	21	1258
96	92481	21	1258
96	92499	21	1258
96	92517	21	1258
96	92535	21	1258
96	92553	21	1258
96	92571	21	1258
96	92589	21	1258
96	92607	21	1258
96	92625	21	1258
96	92643	21	1258
96	92661	21	1258
96	92679	21	1258
96	92697	21	1258
96	92715	21	1258
96	92733	21	1258
96	92751	21	1258
96	92769	21	1258
96	92787	21	1258
96	92805	21	1258
96	92823	21	1258
96	92841	21	1258
96	92859	21	1258
96	92877	21	1258
96	92895	21	1258
96	92913	21	1258
96	92931	21	1258
96	92949	21	1258
96	92967	21	1258
96	92985	21	1258
96	93003	21	1258
96	93021	21	1258
96	93039	21	1258
96	93057	21	1258
96	93075	21	1258
96	93093	21	1258
96	93111	21	1258
96	93129	21	1258
96	93147	21	1258
96	93165	21	1258
96	93183	21	1258
96	93201	21	1258
96	93219	21	1258
96	93237	21	1258
96	93255	21	1258
96	93273	21	1258
96	93291	21	1258
96	93309	21	1258
96	93327	21	1258
96	93345	21	1258
96	93363	21	1258
96	93381	21	1258
96	93399	21	1258
96	93417	21	1258
96	93435	21	1258
96	93453	21	1258
96	93471	21	1258
96	93489	21	1258
96	93507	21	1258
96	93525	21	1258
96	93543	21	1258
96	93561	21	1258
96	93579	21	1258
96	93597	21	1258
96	93615	21	1258
96	93633	21	1258
96	93651	21	1258
96	93669	21	1258
96	93687	21	1258
96	93705	21	1258
96	93723	21	1258
96	93741	21	1258
96	93759	21	1258
96	93777	21	1258
96	93795	21	1258
96	93813	21	1258
96	93831	21	1258
96	93849	21	1258
96	93867	21	1258
96	93885	21	1258
96	93903	21	1258
96	93921	21	1258
96	93939	21	1258
96	93957	21	1258
96	93975	21	1258
96	93993	21	1258
96	94011	21	1258
96	94029	21	1258
96	94047	21	1258
96	94065	21	1258
96	94083	21	1258
96	94101	21	1258
96	94119	21	1258
96	94137	21	1258
96	94155	21	1258
96	94173	21	1258
96	94191	21	1258
96	94209	21	1258
96	94227	21	1258
96	94245	21	1258
96	94263	21	1258
96	94281	21	1258
96	94299	21	1258
96	94317	21	1258
96	94335	21	1258
96	94353	21	1258
96	94371	21	1258
96	94389	21	1258
96	94407	21	1258
96	94425	21	1258
96	94443	21	1258
96	94461	21	1258
96	94479	21	1258
96	94497	21	1258
96	94515	21	1258
96	94533	21	1258
96	94551	21	1258
96	94569	21	1258
96	94587	21	1258
96	94605	21	1258
96	94623	21	1258
96	94641	21	1258
96	94659	21	1258
96	94677	21	1258
96	94695	21	1258
96	94713	21	1258
96	94731	21	1258
96	94749	21	1258
96	94767	21	1258
96	94785	21	1258
96	94803	21	1258
96	94821	21	1258
96	94839	21	1258
96	94857	21	1258
96	94875	21	1258
96	94893	21	1258
96	94911	21	1258
96	94929	21	1258
96	94947	21	1258
96	94965	21	1258
96	94983	21	1258
96	95001	21	1258
96	95019	21	1258
96	95037	21	1258
96	95055	21	1258
96	95073	21	1258
96	95091	21	1258
96	95109	21	1258
96	95127	21	1258
96	95145	21	1258
96	95163	21	1258
96	95181	21	1258
96	95199	21	1258
96	95217	21	1258
96	95235	21	1258
96	95253	21	1258
96	95271	21	1258
96	95289	21	1258
96	95307	21	1258
96	95325	21	1258
96	95343	21	1258
96	95361	21	1258
96	95379	21	1258
96	95397	21	1258
96	95415	21	1258
96	95433	21	1258
96	95451	21	1258
96	95469	21	1258
96	95487	21	1258
96	95505	21	1258
96	95523	21	1258
96	95541	21	1258
96	95559	21	1258
96	95577	21	1258
96	95595	21	1258
96	95613	21	1258
96	95631	21	1258
96	95649	21	1258
96	95667	21	1258
96	95685	21	1258
96	95703	21	1258
96	95721	21	1258
96	95739	21	1258
96	95757	21	1258
96	95775	21	1258
96	95793	21	1258
96	95811	21	1258
96	95829	21	1258
96	95847	21	1258
96	95865	21	1258
96	95883	21	1258
96	95901	21	1258
96	95919	21	1258
96	95937	21	1258
96	95955	21	1258
96	95973	21	1258
96	95991	21	1258
96	96009	21	1258
96	96027	21	1258
96	96045	21	1258
96	96063	21	1258
96	96081	21	1258
96	96099	21	1258
96	96117	21	1258
96	96135	21	1258
96	96153	21	1258
96	96171	21	1258
96	96189	21	1258
96	96207	21	1258
96	96225	21	1258
96	96243	21	1258
96	96261	21	1258
96	96279	21	1258
96	96297	21	1258
96	96315	21	1258
96	96333	21	1258
96	96351	21	1258
96	96369	21	1258
96	96387	21	1258
96	96405	21	1258
96	96423	21	1258
96	96441	21	1258
96	96459	21	1258
96	96477	21	1258
96	96495	21	1258
vector 97 Scenario.node[1].wlan[0].mac.dcf.channelAccess.pendingQueue outgoingDataRate:vector ETV
attr interpolationmode linear
attr recordingmode vector
attr source throughput(packetPulled)
attr title "outgoing datarate"
attr unit bps
vector 98 Scenario.node[2].wlan[0].mac.dcf.channelAccess.pendingQueue outgoingDataRate:vector ETV
attr interpolationmode linear
attr recordingmode vector
attr source throughput(packetPulled)
attr title "outgoing datarate"
attr unit bps
vector 99 Scenario.node[2].wlan[0].mac.dcf.channelAccess.pendingQueue incomingDataRate:vector ETV
attr interpolationmode linear
attr recordingmode vector
attr source throughput(packetPushStarted)
attr title "incoming datarate"
attr unit bps
vector 100 Scenario.node[2].app[0] throughput:vector ETV
attr recordingmode vector
attr source throughput(packetReceived)
attr title throughput
attr unit bps
vector 101 Scenario.node[3].wlan[0].mac.dcf.channelAccess.pendingQueue outgoingDataRate:vector ETV
attr interpolationmode linear
attr recordingmode vector
attr source throughput(packetPulled)
attr title "outgoing datarate"
attr unit bps
vector 102 Scenario.node[3].wlan[0].mac.dcf.channelAccess.pendingQueue incomingDataRate:vector ETV
attr interpolationmode linear
attr recordingmode vector
attr source throughput(packetPushStarted)
attr title "incoming datarate"
attr unit bps
vector 103 Scenario.node[3].app[0] throughput:vector ETV
attr recordingmode vector
attr source throughput(packetReceived)
attr title throughput
attr unit bps
60	96512	20.1	12640
60	96512	20.2	0
60	96512	20.3	0
60	96512	20.4	0
60	96512	20.5	0
60	96512	20.6	0
60	96512	20.7	0
60	96512	20.8	0
60	96512	20.9	0
60	96512	21	0
97	96512	5.2	0
97	96512	5.3	0
97	96512	5.4	0
97	96512	5.5	0
97	96512	5.6	0
97	96512	5.7	0
97	96512	5.8	0
97	96512	5.9	0
97	96512	6	0
97	96512	6.1	0
97	96512	6.2	0
97	96512	6.3	0
97	96512	6.4	0
97	96512	6.5	0
97	96512	6.6	0
97	96512	6.7	0
97	96512	6.8	0
97	96512	6.9	0
97	96512	7	0
97	96512	7.1	0
97	96512	7.2	0
97	96512	7.3	0
97	96512	7.4	0
97	96512	7.5	0
97	96512	7.6	0
97	96512	7.7	0
97	96512	7.8	0
97	96512	7.9	0
97	96512	8	0
97	96512	8.1	0
97	96512	8.2	0
97	96512	8.3	0
97	96512	8.4	0
97	96512	8.5	0
97	96512	8.6	0
97	96512	8.7	0
97	96512	8.8	0
97	96512	8.9	0
97	96512	9	0
97	96512	9.1	0
97	96512	9.2	0
97	96512	9.3	0
97	96512	9.4	0
97	96512	9.5	0
97	96512	9.6	0
97	96512	9.7	0
97	96512	9.8	0
97	96512	9.9	0
97	96512	10	0
97	96512	10.1	0
97	96512	10.2	0
97	96512	10.3	0
97	96512	10.4	0
97	96512	10.5	0
97	96512	10.6	0
97	96512	10.7	0
97	96512	10.8	0
97	96512	10.9	0
97	96512	11	0
97	96512	11.1	0
97	96512	11.2	0
97	96512	11.3	0
97	96512	11.4	0
97	96512	11.5	0
97	96512	11.6	0
97	96512	11.7	0
97	96512	11.8	0
97	96512	11.9	0
97	96512	12	0
97	96512	12.1	0
97	96512	12.2	0
97	96512	12.3	0
97	96512	12.4	0
97	96512	12.5	0
97	96512	12.6	0
97	96512	12.7	0
97	96512	12.8	0
97	96512	12.9	0
97	96512	13	0
97	96512	13.1	0
97	96512	13.2	0
97	96512	13.3	0
97	96512	13.4	0
97	96512	13.5	0
97	96512	13.6	0
97	96512	13.7	0
97	96512	13.8	0
97	96512	13.9	0
97	96512	14	0
97	96512	14.1	0
97	96512	14.2	0
97	96512	14.3	0
97	96512	14.4	0
97	96512	14.5	0
97	96512	14.6	0
97	96512	14.7	0
97	96512	14.8	0
97	96512	14.9	0
97	96512	15	0
97	96512	15.1	0
97	96512	15.2	0
97	96512	15.3	0
97	96512	15.4	0
97	96512	15.5	0
97	96512	15.6	0
97	96512	15.7	0
97	96512	15.8	0
97	96512	15.9	0
97	96512	16	0
97	96512	16.1	0
97	96512	16.2	0
97	96512	16.3	0
97	96512	16.4	0
97	96512	16.5	0
97	96512	16.6	0
97	96512	16.7	0
97	96512	16.8	0
97	96512	16.9	0
97	96512	17	0
97	96512	17.1	0
97	96512	17.2	0
97	96512	17.3	0
97	96512	17.4	0
97	96512	17.5	0
97	96512	17.6	0
97	96512	17.7	0
97	96512	17.8	0
97	96512	17.9	0
97	96512	18	0
97	96512	18.1	0
97	96512	18.2	0
97	96512	18.3	0
97	96512	18.4	0
97	96512	18.5	0
97	96512	18.6	0
97	96512	18.7	0
97	96512	18.8	0
97	96512	18.9	0
97	96512	19	0
97	96512	19.1	0
97	96512	19.2	0
97	96512	19.3	0
97	96512	19.4	0
97	96512	19.5	0
97	96512	19.6	0
97	96512	19.7	0
97	96512	19.8	0
97	96512	19.9	0
97	96512	20	0
97	96512	20.1	0
97	96512	20.2	0
97	96512	20.3	0
97	96512	20.4	0
97	96512	20.5	0
97	96512	20.6	0
97	96512	20.7	0
97	96512	20.8	0
97	96512	20.9	0
97	96512	21	0
98	96512	10.2	0
98	96512	10.3	0
98	96512	10.4	0
98	96512	10.5	0
98	96512	10.6	0
98	96512	10.7	0
98	96512	10.8	0
98	96512	10.9	0
98	96512	11	0
98	96512	11.1	0
98	96512	11.2	0
98	96512	11.3	0
98	96512	11.4	0
98	96512	11.5	0
98	96512	11.6	0
98	96512	11.7	0
98	96512	11.8	0
98	96512	11.9	0
98	96512	12	0
98	96512	12.1	0
98	96512	12.2	0
98	96512	12.3	0
98	96512	12.4	0
98	96512	12.5	0
98	96512	12.6	0
98	96512	12.7	0
98	96512	12.8	0
98	96512	12.9	0
98	96512	13	0
98	96512	13.1	0
98	96512	13.2	0
98	96512	13.3	0
98	96512	13.4	0
98	96512	13.5	0
98	96512	13.6	0
98	96512	13.7	0
98	96512	13.8	0
98	96512	13.9	0
98	96512	14	0
98	96512	14.1	0
98	96512	14.2	0
98	96512	14.3	0
98	96512	14.4	0
98	96512	14.5	0
98	96512	14.6	0
98	96512	14.7	0
98	96512	14.8	0
98	96512	14.9	0
98	96512	15	0
98	96512	15.1	0
98	96512	15.2	0
98	96512	15.3	0
98	96512	15.4	0
98	96512	15.5	0
98	96512	15.6	0
98	96512	15.7	0
98	96512	15.8	0
98	96512	15.9	0
98	96512	16	0
98	96512	16.1	0
98	96512	16.2	0
98	96512	16.3	0
98	96512	16.4	0
98	96512	16.5	0
98	96512	16.6	0
98	96512	16.7	0
98	96512	16.8	0
98	96512	16.9	0
98	96512	17	0
98	96512	17.1	0
98	96512	17.2	0
98	96512	17.3	0
98	96512	17.4	0
98	96512	17.5	0
98	96512	17.6	0
98	96512	17.7	0
98	96512	17.8	0
98	96512	17.9	0
98	96512	18	0
98	96512	18.1	0
98	96512	18.2	0
98	96512	18.3	0
98	96512	18.4	0
98	96512	18.5	0
98	96512	18.6	0
98	96512	18.7	0
98	96512	18.8	0
98	96512	18.9	0
98	96512	19	0
98	96512	19.1	0
98	96512	19.2	0
98	96512	19.3	0
98	96512	19.4	0
98	96512	19.5	0
98	96512	19.6	0
98	96512	19.7	0
98	96512	19.8	0
98	96512	19.9	0
98	96512	20	0
98	96512	20.1	0
98	96512	20.2	0
98	96512	20.3	0
98	96512	20.4	0
98	96512	20.5	0
98	96512	20.6	0
98	96512	20.7	0
98	96512	20.8	0
98	96512	20.9	0
98	96512	21	0
99	96512	10.2	0
99	96512	10.3	0
99	96512	10.4	0
99	96512	10.5	0
99	96512	10.6	0
99	96512	10.7	0
99	96512	10.8	0
99	96512	10.9	0
99	96512	11	0
99	96512	11.1	0
99	96512	11.2	0
99	96512	11.3	0
99	96512	11.4	0
99	96512	11.5	0
99	96512	11.6	0
99	96512	11.7	0
99	96512	11.8	0
99	96512	11.9	0
99	96512	12	0
99	96512	12.1	0
99	96512	12.2	0
99	96512	12.3	0
99	96512	12.4	0
99	96512	12.5	0
99	96512	12.6	0
99	96512	12.7	0
99	96512	12.8	0
99	96512	12.9	0
99	96512	13	0
99	96512	13.1	0
99	96512	13.2	0
99	96512	13.3	0
99	96512	13.4	0
99	96512	13.5	0
99	96512	13.6	0
99	96512	13.7	0
99	96512	13.8	0
99	96512	13.9	0
99	96512	14	0
99	96512	14.1	0
99	96512	14.2	0
99	96512	14.3	0
99	96512	14.4	0
99	96512	14.5	0
99	96512	14.6	0
99	96512	14.7	0
99	96512	14.8	0
99	96512	14.9	0
99	96512	15	0
99	96512	15.1	0
99	96512	15.2	0
99	96512	15.3	0
99	96512	15.4	0
99	96512	15.5	0
99	96512	15.6	0
99	96512	15.7	0
99	96512	15.8	0
99	96512	15.9	0
99	96512	16	0
99	96512	16.1	0
99	96512	16.2	0
99	96512	16.3	0
99	96512	16.4	0
99	96512	16.5	0
99	96512	16.6	0
99	96512	16.7	0
99	96512	16.8	0
99	96512	16.9	0
99	96512	17	0
99	96512	17.1	0
99	96512	17.2	0
99	96512	17.3	0
99	96512	17.4	0
99	96512	17.5	0
99	96512	17.6	0
99	96512	17.7	0
99	96512	17.8	0
99	96512	17.9	0
99	96512	18	0
99	96512	18.1	0
99	96512	18.2	0
99	96512	18.3	0
99	96512	18.4	0
99	96512	18.5	0
99	96512	18.6	0
99	96512	18.7	0
99	96512	18.8	0
99	96512	18.9	0
99	96512	19	0
99	96512	19.1	0
99	96512	19.2	0
99	96512	19.3	0
99	96512	19.4	0
99	96512	19.5	0
99	96512	19.6	0
99	96512	19.7	0
99	96512	19.8	0
99	96512	19.9	0
99	96512	20	0
99	96512	20.1	0
99	96512	20.2	0
99	96512	20.3	0
99	96512	20.4	0
99	96512	20.5	0
99	96512	20.6	0
99	96512	20.7	0
99	96512	20.8	0
99	96512	20.9	0
99	96512	21	0
100	96512	10.2	0
100	96512	10.3	0
100	96512	10.4	0
100	96512	10.5	0
100	96512	10.6	0
100	96512	10.7	0
100	96512	10.8	0
100	96512	10.9	0
100	96512	11	0
100	96512	11.1	0
100	96512	11.2	0
100	96512	11.3	0
100	96512	11.4	0
100	96512	11.5	0
100	96512	11.6	0
100	96512	11.7	0
100	96512	11.8	0
100	96512	11.9	0
100	96512	12	0
100	96512	12.1	0
100	96512	12.2	0
100	96512	12.3	0
100	96512	12.4	0
100	96512	12.5	0
100	96512	12.6	0
100	96512	12.7	0
100	96512	12.8	0
100	96512	12.9	0
100	96512	13	0
100	96512	13.1	0
100	96512	13.2	0
100	96512	13.3	0
100	96512	13.4	0
100	96512	13.5	0
100	96512	13.6	0
100	96512	13.7	0
100	96512	13.8	0
100	96512	13.9	0
100	96512	14	0
100	96512	14.1	0
100	96512	14.2	0
100	96512	14.3	0
100	96512	14.4	0
100	96512	14.5	0
100	96512	14.6	0
100	96512	14.7	0
100	96512	14.8	0
100	96512	14.9	0
100	96512	15	0
100	96512	15.1	0
100	96512	15.2	0
100	96512	15.3	0
100	96512	15.4	0
100	96512	15.5	0
100	96512	15.6	0
100	96512	15.7	0
100	96512	15.8	0
100	96512	15.9	0
100	96512	16	0
100	96512	16.1	0
100	96512	16.2	0
100	96512	16.3	0
100	96512	16.4	0
100	96512	16.5	0
100	96512	16.6	0
100	96512	16.7	0
100	96512	16.8	0
100	96512	16.9	0
100	96512	17	0
100	96512	17.1	0
100	96512	17.2	0
100	96512	17.3	0
100	96512	17.4	0
100	96512	17.5	0
100	96512	17.6	0
100	96512	17.7	0
100	96512	17.8	0
100	96512	17.9	0
100	96512	18	0
100	96512	18.1	0
100	96512	18.2	0
100	96512	18.3	0
100	96512	18.4	0
100	96512	18.5	0
100	96512	18.6	0
100	96512	18.7	0
100	96512	18.8	0
100	96512	18.9	0
100	96512	19	0
100	96512	19.1	0
100	96512	19.2	0
100	96512	19.3	0
100	96512	19.4	0
100	96512	19.5	0
100	96512	19.6	0
100	96512	19.7	0
100	96512	19.8	0
100	96512	19.9	0
100	96512	20	0
100	96512	20.1	0
100	96512	20.2	0
100	96512	20.3	0
100	96512	20.4	0
100	96512	20.5	0
100	96512	20.6	0
100	96512	20.7	0
100	96512	20.8	0
100	96512	20.9	0
100	96512	21	0
101	96512	15.2	0
101	96512	15.3	0
101	96512	15.4	0
101	96512	15.5	0
101	96512	15.6	0
101	96512	15.7	0
101	96512	15.8	0
101	96512	15.9	0
101	96512	16	0
101	96512	16.1	0
101	96512	16.2	0
101	96512	16.3	0
101	96512	16.4	0
101	96512	16.5	0
101	96512	16.6	0
101	96512	16.7	0
101	96512	16.8	0
101	96512	16.9	0
101	96512	17	0
101	96512	17.1	0
101	96512	17.2	0
101	96512	17.3	0
101	96512	17.4	0
101	96512	17.5	0
101	96512	17.6	0
101	96512	17.7	0
101	96512	17.8	0
101	96512	17.9	0
101	96512	18	0
101	96512	18.1	0
101	96512	18.2	0
101	96512	18.3	0
101	96512	18.4	0
101	96512	18.5	0
101	96512	18.6	0
101	96512	18.7	0
101	96512	18.8	0
101	96512	18.9	0
101	96512	19	0
101	96512	19.1	0
101	96512	19.2	0
101	96512	19.3	0
101	96512	19.4	0
101	96512	19.5	0
101	96512	19.6	0
101	96512	19.7	0
101	96512	19.8	0
101	96512	19.9	0
101	96512	20	0
101	96512	20.1	0
101	96512	20.2	0
101	96512	20.3	0
101	96512	20.4	0
101	96512	20.5	0
101	96512	20.6	0
101	96512	20.7	0
101	96512	20.8	0
101	96512	20.9	0
101	96512	21	0
102	96512	15.2	0
102	96512	15.3	0
102	96512	15.4	0
102	96512	15.5	0
102	96512	15.6	0
102	96512	15.7	0
102	96512	15.8	0
102	96512	15.9	0
102	96512	16	0
102	96512	16.1	0
102	96512	16.2	0
102	96512	16.3	0
102	96512	16.4	0
102	96512	16.5	0
102	96512	16.6	0
102	96512	16.7	0
102	96512	16.8	0
102	96512	16.9	0
102	96512	17	0
102	96512	17.1	0
102	96512	17.2	0
102	96512	17.3	0
102	96512	17.4	0
102	96512	17.5	0
102	96512	17.6	0
102	96512	17.7	0
102	96512	17.8	0
102	96512	17.9	0
102	96512	18	0
102	96512	18.1	0
102	96512	18.2	0
102	96512	18.3	0
102	96512	18.4	0
102	96512	18.5	0
102	96512	18.6	0
102	96512	18.7	0
102	96512	18.8	0
102	96512	18.9	0
102	96512	19	0
102	96512	19.1	0
102	96512	19.2	0
102	96512	19.3	0
102	96512	19.4	0
102	96512	19.5	0
102	96512	19.6	0
102	96512	19.7	0
102	96512	19.8	0
102	96512	19.9	0
102	96512	20	0
102	96512	20.1	0
102	96512	20.2	0
102	96512	20.3	0
102	96512	20.4	0
102	96512	20.5	0
102	96512	20.6	0
102	96512	20.7	0
102	96512	20.8	0
102	96512	20.9	0
102	96512	21	0
103	96512	15.2	0
103	96512	15.3	0
103	96512	15.4	0
103	96512	15.5	0
103	96512	15.6	0
103	96512	15.7	0
103	96512	15.8	0
103	96512	15.9	0
103	96512	16	0
103	96512	16.1	0
103	96512	16.2	0
103	96512	16.3	0
103	96512	16.4	0
103	96512	16.5	0
103	96512	16.6	0
103	96512	16.7	0
103	96512	16.8	0
103	96512	16.9	0
103	96512	17	0
103	96512	17.1	0
103	96512	17.2	0
103	96512	17.3	0
103	96512	17.4	0
103	96512	17.5	0
103	96512	17.6	0
103	96512	17.7	0
103	96512	17.8	0
103	96512	17.9	0
103	96512	18	0
103	96512	18.1	0
103	96512	18.2	0
103	96512	18.3	0
103	96512	18.4	0
103	96512	18.5	0
103	96512	18.6	0
103	96512	18.7	0
103	96512	18.8	0
103	96512	18.9	0
103	96512	19	0
103	96512	19.1	0
103	96512	19.2	0
103	96512	19.3	0
103	96512	19.4	0
103	96512	19.5	0
103	96512	19.6	0
103	96512	19.7	0
103	96512	19.8	0
103	96512	19.9	0
103	96512	20	0
103	96512	20.1	0
103	96512	20.2	0
103	96512	20.3	0
103	96512	20.4	0
103	96512	20.5	0
103	96512	20.6	0
103	96512	20.7	0
103	96512	20.8	0
103	96512	20.9	0
103	96512	21	0

