<<<<<<< HEAD
file 115400 1715359579                                          
version 3
run General-0-20240510-09:03:15-20042
attr configname General
attr datetime 20240510-09:03:15
attr datetimef 20240510-090315
=======
file 116474 1715027130                                          
version 3
run General-0-20240506-20:58:08-12526
attr configname General
attr datetime 20240506-20:58:08
attr datetimef 20240506-205808
>>>>>>> cb40c32b5605b182eb28a7bfd6f1ddcc854b381a
attr experiment General
attr inifile omnetpp.ini
attr iterationvars ""
attr iterationvarsd ""
attr iterationvarsf ""
attr measurement ""
attr network Scenario
<<<<<<< HEAD
attr processid 20042
=======
attr processid 12526
>>>>>>> cb40c32b5605b182eb28a7bfd6f1ddcc854b381a
attr repetition 0
attr replication #0
attr resultdir results
attr runnumber 0
attr seedset 0
config image-path ../../images:../../../inet4.4/images:../../../veins-veins-5.2/images
config network Scenario
config sim-time-limit 60s
config debug-on-errors true
config cmdenv-express-mode true
config image-path ../../../../images
<<<<<<< HEAD
=======
config *.*.isMalicious true
>>>>>>> cb40c32b5605b182eb28a7bfd6f1ddcc854b381a
config *.node[*].numApps 1
config *.node[*].app[0].typename org.car2x.veins.subprojects.veins_inet.VeinsInetSampleApplication
config *.node[*].app[0].interface "\"wlan0\""
config *.node[*].wlan[0].opMode "\"p\""
config *.node[*].wlan[0].radio.typename Ieee80211DimensionalRadio
config *.node[*].wlan[0].radio.bandName "\"5.9 GHz\""
config *.node[*].wlan[0].radio.channelNumber 3
config *.node[*].wlan[0].radio.transmitter.power 20mW
config *.node[*].wlan[0].radio.bandwidth "10 MHz"
config *.node[*].wlan[*].radio.antenna.mobility.typename AttachedMobility
config *.node[*].wlan[*].radio.antenna.mobility.mobilityModule "\"^.^.^.^.mobility\""
config *.node[*].wlan[*].radio.antenna.mobility.offsetX -2.5m
config *.node[*].wlan[*].radio.antenna.mobility.offsetZ 1.5m
config *.node[*].wlan[*].radio.antenna.mobility.constraintAreaMinX 0m
config *.node[*].wlan[*].radio.antenna.mobility.constraintAreaMaxX 0m
config *.node[*].wlan[*].radio.antenna.mobility.constraintAreaMinY 0m
config *.node[*].wlan[*].radio.antenna.mobility.constraintAreaMaxY 0m
config *.node[*].wlan[*].radio.antenna.mobility.constraintAreaMinZ 0m
config *.node[*].wlan[*].radio.antenna.mobility.constraintAreaMaxZ 0m
config *.node[*].ipv4.configurator.typename HostAutoConfigurator
config *.node[*].ipv4.configurator.interfaces "\"wlan0\""
config *.node[*].ipv4.configurator.mcastGroups "\"224.0.0.1\""
config *.node[*].mobility.typename VeinsInetMobility
config *.manager.updateInterval 0.1s
config *.manager.host "\"localhost\""
config *.manager.port 9999
config *.manager.autoShutdown true
config *.manager.launchConfig "xmldoc(\"square.launchd.xml\")"
config *.manager.moduleType "\"org.car2x.veins.subprojects.veins_inet.VeinsInetCar\""
config *.physicalEnvironment.config "xmldoc(\"obstacles.xml\")"
config *.radioMedium.obstacleLoss.typename IdealObstacleLoss
config **.vector-recording true

vector 0 Scenario.node[0].wlan[0].mac.dcf frameSequenceActive:vector ETV
attr autoWarmupFilter false
attr interpolationmode sample-hold
attr recordingmode vector
attr source warmup(count(frameSequenceStarted)-count(frameSequenceFinished))
attr title "frame sequence active"
vector 1 Scenario.node[0].wlan[0].mac.dcf.channelAccess.inProgressFrames queueLength:vector ETV
attr autoWarmupFilter false
attr interpolationmode sample-hold
attr recordingmode vector
attr source "warmup(count(packetEnqueued) - count(packetDequeued))"
attr title "queue length"
vector 2 Scenario.node[0].wlan[0].mac.dcf.channelAccess.contention backoffActive:vector ETV
attr autoWarmupFilter false
attr interpolationmode sample-hold
attr recordingmode vector
attr source warmup(count(backoffStarted)-count(backoffStopped))
attr title "backoff active"
vector 3 Scenario.node[0].udp passedUpPk:vector(count) ETV
attr interpolationmode none
attr recordingmode vector(count)
attr source packetSentToUpper
attr title "packets passed up, count"
vector 4 Scenario.node[0].udp droppedPkWrongPort:vector(count) ETV
attr interpolationmode none
attr recordingmode vector(count)
attr source packetDropReasonIsNoPortFound(packetDropped)
attr title "packets dropped (wrong port), count"
vector 5 Scenario.node[0].udp droppedPkBadChecksum:vector(count) ETV
attr interpolationmode none
attr recordingmode vector(count)
attr source packetDropReasonIsIncorrectlyReceived(packetDropped)
attr title "packets dropped (checksum error), count"
vector 6 Scenario.node[0].wlan[0].radio radioMode:vector ETV
attr interpolationmode sample-hold
attr recordingmode vector
attr source radioModeChanged
attr title "Radio mode"
vector 7 Scenario.node[0].wlan[0].radio radioChannel:vector ETV
attr interpolationmode sample-hold
attr recordingmode vector
attr source radioChannelChanged
attr title "Radio channel"
vector 8 Scenario.node[0].wlan[0].radio receptionState:vector ETV
attr interpolationmode sample-hold
attr recordingmode vector
attr source receptionStateChanged
attr title "Radio reception state"
vector 9 Scenario.node[0].wlan[0].mac.dcf.channelAccess.contention stateChanged:vector ETV
attr enum IDLE,DEFER,IFS_AND_BACKOFF
attr interpolationmode none
attr recordingmode vector
attr title "contention state changed"
attr type enum
vector 10 Scenario.node[0].wlan[0].mac.dcf.recoveryProcedure contentionWindowChanged:vector ETV
attr interpolationmode sample-hold
attr recordingmode vector
attr title "contention window"
vector 11 Scenario.node[1].wlan[0].mac.dcf frameSequenceActive:vector ETV
attr autoWarmupFilter false
attr interpolationmode sample-hold
attr recordingmode vector
attr source warmup(count(frameSequenceStarted)-count(frameSequenceFinished))
attr title "frame sequence active"
vector 12 Scenario.node[1].wlan[0].mac.dcf.channelAccess.inProgressFrames queueLength:vector ETV
attr autoWarmupFilter false
attr interpolationmode sample-hold
attr recordingmode vector
attr source "warmup(count(packetEnqueued) - count(packetDequeued))"
attr title "queue length"
vector 13 Scenario.node[1].wlan[0].mac.dcf.channelAccess.contention backoffActive:vector ETV
attr autoWarmupFilter false
attr interpolationmode sample-hold
attr recordingmode vector
attr source warmup(count(backoffStarted)-count(backoffStopped))
attr title "backoff active"
vector 14 Scenario.node[1].udp passedUpPk:vector(count) ETV
attr interpolationmode none
attr recordingmode vector(count)
attr source packetSentToUpper
attr title "packets passed up, count"
vector 15 Scenario.node[1].udp droppedPkWrongPort:vector(count) ETV
attr interpolationmode none
attr recordingmode vector(count)
attr source packetDropReasonIsNoPortFound(packetDropped)
attr title "packets dropped (wrong port), count"
vector 16 Scenario.node[1].udp droppedPkBadChecksum:vector(count) ETV
attr interpolationmode none
attr recordingmode vector(count)
attr source packetDropReasonIsIncorrectlyReceived(packetDropped)
attr title "packets dropped (checksum error), count"
vector 17 Scenario.node[1].wlan[0].radio radioMode:vector ETV
attr interpolationmode sample-hold
attr recordingmode vector
attr source radioModeChanged
attr title "Radio mode"
vector 18 Scenario.node[1].wlan[0].radio radioChannel:vector ETV
attr interpolationmode sample-hold
attr recordingmode vector
attr source radioChannelChanged
attr title "Radio channel"
vector 19 Scenario.node[1].wlan[0].radio receptionState:vector ETV
attr interpolationmode sample-hold
attr recordingmode vector
attr source receptionStateChanged
attr title "Radio reception state"
vector 20 Scenario.node[1].wlan[0].mac.dcf.channelAccess.contention stateChanged:vector ETV
attr enum IDLE,DEFER,IFS_AND_BACKOFF
attr interpolationmode none
attr recordingmode vector
attr title "contention state changed"
attr type enum
vector 21 Scenario.node[1].wlan[0].mac.dcf.recoveryProcedure contentionWindowChanged:vector ETV
attr interpolationmode sample-hold
attr recordingmode vector
attr title "contention window"
vector 22 Scenario.node[2].wlan[0].mac.dcf frameSequenceActive:vector ETV
attr autoWarmupFilter false
attr interpolationmode sample-hold
attr recordingmode vector
attr source warmup(count(frameSequenceStarted)-count(frameSequenceFinished))
attr title "frame sequence active"
vector 23 Scenario.node[2].wlan[0].mac.dcf.channelAccess.inProgressFrames queueLength:vector ETV
attr autoWarmupFilter false
attr interpolationmode sample-hold
attr recordingmode vector
attr source "warmup(count(packetEnqueued) - count(packetDequeued))"
attr title "queue length"
vector 24 Scenario.node[2].wlan[0].mac.dcf.channelAccess.contention backoffActive:vector ETV
attr autoWarmupFilter false
attr interpolationmode sample-hold
attr recordingmode vector
attr source warmup(count(backoffStarted)-count(backoffStopped))
attr title "backoff active"
vector 25 Scenario.node[2].udp passedUpPk:vector(count) ETV
attr interpolationmode none
attr recordingmode vector(count)
attr source packetSentToUpper
attr title "packets passed up, count"
vector 26 Scenario.node[2].udp droppedPkWrongPort:vector(count) ETV
attr interpolationmode none
attr recordingmode vector(count)
attr source packetDropReasonIsNoPortFound(packetDropped)
attr title "packets dropped (wrong port), count"
vector 27 Scenario.node[2].udp droppedPkBadChecksum:vector(count) ETV
attr interpolationmode none
attr recordingmode vector(count)
attr source packetDropReasonIsIncorrectlyReceived(packetDropped)
attr title "packets dropped (checksum error), count"
vector 28 Scenario.node[2].wlan[0].radio radioMode:vector ETV
attr interpolationmode sample-hold
attr recordingmode vector
attr source radioModeChanged
attr title "Radio mode"
vector 29 Scenario.node[2].wlan[0].radio radioChannel:vector ETV
attr interpolationmode sample-hold
attr recordingmode vector
attr source radioChannelChanged
attr title "Radio channel"
vector 30 Scenario.node[2].wlan[0].radio receptionState:vector ETV
attr interpolationmode sample-hold
attr recordingmode vector
attr source receptionStateChanged
attr title "Radio reception state"
vector 31 Scenario.node[2].wlan[0].mac.dcf.channelAccess.contention stateChanged:vector ETV
attr enum IDLE,DEFER,IFS_AND_BACKOFF
attr interpolationmode none
attr recordingmode vector
attr title "contention state changed"
attr type enum
vector 32 Scenario.node[2].wlan[0].mac.dcf.recoveryProcedure contentionWindowChanged:vector ETV
attr interpolationmode sample-hold
attr recordingmode vector
attr title "contention window"
vector 33 Scenario.node[3].wlan[0].mac.dcf frameSequenceActive:vector ETV
attr autoWarmupFilter false
attr interpolationmode sample-hold
attr recordingmode vector
attr source warmup(count(frameSequenceStarted)-count(frameSequenceFinished))
attr title "frame sequence active"
vector 34 Scenario.node[3].wlan[0].mac.dcf.channelAccess.inProgressFrames queueLength:vector ETV
attr autoWarmupFilter false
attr interpolationmode sample-hold
attr recordingmode vector
attr source "warmup(count(packetEnqueued) - count(packetDequeued))"
attr title "queue length"
vector 35 Scenario.node[3].wlan[0].mac.dcf.channelAccess.contention backoffActive:vector ETV
attr autoWarmupFilter false
attr interpolationmode sample-hold
attr recordingmode vector
attr source warmup(count(backoffStarted)-count(backoffStopped))
attr title "backoff active"
vector 36 Scenario.node[3].udp passedUpPk:vector(count) ETV
attr interpolationmode none
attr recordingmode vector(count)
attr source packetSentToUpper
attr title "packets passed up, count"
vector 37 Scenario.node[3].udp droppedPkWrongPort:vector(count) ETV
attr interpolationmode none
attr recordingmode vector(count)
attr source packetDropReasonIsNoPortFound(packetDropped)
attr title "packets dropped (wrong port), count"
vector 38 Scenario.node[3].udp droppedPkBadChecksum:vector(count) ETV
attr interpolationmode none
attr recordingmode vector(count)
attr source packetDropReasonIsIncorrectlyReceived(packetDropped)
attr title "packets dropped (checksum error), count"
vector 39 Scenario.node[3].wlan[0].radio radioMode:vector ETV
attr interpolationmode sample-hold
attr recordingmode vector
attr source radioModeChanged
attr title "Radio mode"
vector 40 Scenario.node[3].wlan[0].radio radioChannel:vector ETV
attr interpolationmode sample-hold
attr recordingmode vector
attr source radioChannelChanged
attr title "Radio channel"
vector 41 Scenario.node[3].wlan[0].radio receptionState:vector ETV
attr interpolationmode sample-hold
attr recordingmode vector
attr source receptionStateChanged
attr title "Radio reception state"
vector 42 Scenario.node[3].wlan[0].mac.dcf.channelAccess.contention stateChanged:vector ETV
attr enum IDLE,DEFER,IFS_AND_BACKOFF
attr interpolationmode none
attr recordingmode vector
attr title "contention state changed"
attr type enum
vector 43 Scenario.node[3].wlan[0].mac.dcf.recoveryProcedure contentionWindowChanged:vector ETV
attr interpolationmode sample-hold
attr recordingmode vector
attr title "contention window"
vector 44 Scenario.node[0].app[0] packetSent:vector(packetBytes) ETV
attr interpolationmode none
attr recordingmode vector(packetBytes)
attr source packetSent
attr title "packets sent, packetBytes"
vector 45 Scenario.node[0].udp packetSent:vector(packetBytes) ETV
attr interpolationmode none
attr recordingmode vector(packetBytes)
attr source packetSent
attr title "packets sent, packetBytes"
vector 46 Scenario.node[0].lo[0].lo rcvdPkFromHl:vector(packetBytes) ETV
attr interpolationmode none
attr recordingmode vector(packetBytes)
attr source packetReceivedFromUpper
attr title "packets received from higher layer, packetBytes"
vector 47 Scenario.node[0].lo[0].lo passedUpPk:vector(packetBytes) ETV
attr interpolationmode none
attr recordingmode vector(packetBytes)
attr source packetSentToUpper
attr title "packets passed to higher layer, packetBytes"
vector 48 Scenario.node[0].wlan[0].mac packetReceivedFromUpper:vector(packetBytes) ETV
attr interpolationmode none
attr recordingmode vector(packetBytes)
attr title "packets received from upper layer, packetBytes"
vector 49 Scenario.node[0].wlan[0].mac.dcf.channelAccess.pendingQueue incomingPacketLengths:vector ETV
attr interpolationmode none
attr recordingmode vector
attr source packetLength(packetPushStarted)
attr title "incoming packet lengths"
attr unit b
vector 50 Scenario.node[0].wlan[0].mac.dcf.channelAccess.pendingQueue incomingDataRate:vector ETV
attr interpolationmode linear
attr recordingmode vector
attr source throughput(packetPushStarted)
attr title "incoming datarate"
attr unit bps
vector 51 Scenario.node[0].wlan[0].mac.dcf.channelAccess.pendingQueue queueLength:vector ETV
attr autoWarmupFilter false
attr interpolationmode sample-hold
attr recordingmode vector
attr source "warmup(atomic(constant0(packetPushEnded) + count(packetPushStarted) - count(packetPulled) - count(packetRemoved) - count(packetDropped)))"
attr title "queue length"
attr unit pk
vector 52 Scenario.node[0].wlan[0].mac.dcf.channelAccess.pendingQueue queueBitLength:vector ETV
attr autoWarmupFilter false
attr interpolationmode sample-hold
attr recordingmode vector
attr source "warmup(atomic(constant0(packetPushEnded) + sum(packetLength(packetPushStarted)) - sum(packetLength(packetPulled)) - sum(packetLength(packetRemoved)) - sum(packetLength(packetDropped))))"
attr title "queue bit length"
attr unit b
vector 53 Scenario.node[0].wlan[0].mac.dcf.channelAccess.contention backoffPeriodGenerated:vector ETV
attr interpolationmode none
attr recordingmode vector
attr title "backoff periods"
vector 54 Scenario.node[0].udp packetReceived:vector(packetBytes) ETV
attr interpolationmode none
attr recordingmode vector(packetBytes)
attr source packetReceived
attr title "packets received, packetBytes"
vector 55 Scenario.node[0].app[0] packetReceived:vector(packetBytes) ETV
attr interpolationmode none
attr recordingmode vector(packetBytes)
attr source packetReceived
attr title "packets received, packetBytes"
vector 56 Scenario.node[0].app[0] throughput:vector ETV
attr recordingmode vector
attr source throughput(packetReceived)
attr title throughput
attr unit bps
vector 57 Scenario.node[0].app[0] rcvdPkLifetime:vector ETV
attr interpolationmode none
attr recordingmode vector
attr source dataAge(packetReceived)
attr title "received packet lifetime"
attr unit s
vector 58 Scenario.node[0].wlan[0].mac.dcf.channelAccess.pendingQueue queueingTime:vector ETV
attr interpolationmode none
attr recordingmode vector
attr source queueingTime(packetPulled)
attr title "queueing times"
attr unit s
vector 59 Scenario.node[0].wlan[0].mac.dcf.channelAccess.pendingQueue outgoingPacketLengths:vector ETV
attr interpolationmode none
attr recordingmode vector
attr source packetLength(packetPulled)
attr title "outgoing packet lengths"
attr unit b
vector 60 Scenario.node[0].wlan[0].mac.dcf.channelAccess.pendingQueue outgoingDataRate:vector ETV
attr interpolationmode linear
attr recordingmode vector
attr source throughput(packetPulled)
attr title "outgoing datarate"
attr unit bps
vector 61 Scenario.node[0].wlan[0].mac.dcf datarateSelected:vector ETV
attr interpolationmode none
attr recordingmode vector
attr title "datarates selected"
vector 62 Scenario.node[0].wlan[0].mac packetSentToLower:vector(packetBytes) ETV
attr interpolationmode none
attr recordingmode vector(packetBytes)
attr title "packets sent to lower layer, packetBytes"
vector 63 Scenario.node[0].wlan[0].radio transmissionState:vector ETV
attr interpolationmode sample-hold
attr recordingmode vector
attr source transmissionStateChanged
attr title "Radio transmission state"
vector 64 Scenario.node[0].wlan[0].mac.dcf packetSentToPeer:vector(packetBytes) ETV
attr interpolationmode none
attr recordingmode vector(packetBytes)
attr title "packets sent, packetBytes"
vector 65 Scenario.node[0].wlan[0].mac.dcf packetSentToPeerMulticast:vector(packetBytes) ETV
attr interpolationmode none
attr recordingmode vector(packetBytes)
attr source ieee80211Multicast(packetSentToPeer)
attr title "packets sent: multicast, packetBytes"
vector 66 Scenario.node[0].wlan[0].mac.dcf packetSentToPeerWithoutRetry:vector(packetBytes) ETV
attr interpolationmode none
attr recordingmode vector(packetBytes)
attr source ieee80211NotRetry(packetSentToPeer)
attr title "packets sent: without retry, packetBytes"
vector 67 Scenario.node[0].wlan[0].mac.dcf.channelAccess.inProgressFrames queueingTime:vector ETV
attr interpolationmode none
attr recordingmode vector
attr source queueingTime(packetDequeued)
attr title "queueing times"
vector 68 Scenario.node[1].wlan[0].mac packetReceivedFromLower:vector(packetBytes) ETV
attr interpolationmode none
attr recordingmode vector(packetBytes)
attr title "packets received from lower layer, packetBytes"
vector 69 Scenario.node[1].wlan[0].mac.dcf packetReceivedFromPeer:vector(packetBytes) ETV
attr interpolationmode none
attr recordingmode vector(packetBytes)
attr title "packets received, packetBytes"
vector 70 Scenario.node[1].wlan[0].mac.dcf packetReceivedFromPeerMulticast:vector(packetBytes) ETV
attr interpolationmode none
attr recordingmode vector(packetBytes)
attr source ieee80211Multicast(packetReceivedFromPeer)
attr title "packets received: multicast, packetBytes"
vector 71 Scenario.node[1].wlan[0].mac.dcf packetReceivedFromPeerWithoutRetry:vector(packetBytes) ETV
attr interpolationmode none
attr recordingmode vector(packetBytes)
attr source ieee80211NotRetry(packetReceivedFromPeer)
attr title "packets received: without retry, packetBytes"
vector 72 Scenario.node[1].wlan[0].mac packetSentToUpper:vector(packetBytes) ETV
attr interpolationmode none
attr recordingmode vector(packetBytes)
attr title "packets sent to upper layer, packetBytes"
vector 73 Scenario.node[1].udp packetReceived:vector(packetBytes) ETV
attr interpolationmode none
attr recordingmode vector(packetBytes)
attr source packetReceived
attr title "packets received, packetBytes"
vector 74 Scenario.node[1].app[0] packetReceived:vector(packetBytes) ETV
attr interpolationmode none
attr recordingmode vector(packetBytes)
attr source packetReceived
attr title "packets received, packetBytes"
vector 75 Scenario.node[1].app[0] throughput:vector ETV
attr recordingmode vector
attr source throughput(packetReceived)
attr title throughput
attr unit bps
vector 76 Scenario.node[1].app[0] rcvdPkLifetime:vector ETV
attr interpolationmode none
attr recordingmode vector
attr source dataAge(packetReceived)
attr title "received packet lifetime"
attr unit s
vector 77 Scenario.node[1].app[0] packetSent:vector(packetBytes) ETV
attr interpolationmode none
attr recordingmode vector(packetBytes)
attr source packetSent
attr title "packets sent, packetBytes"
vector 78 Scenario.node[1].udp packetSent:vector(packetBytes) ETV
attr interpolationmode none
attr recordingmode vector(packetBytes)
attr source packetSent
attr title "packets sent, packetBytes"
vector 79 Scenario.node[1].lo[0].lo rcvdPkFromHl:vector(packetBytes) ETV
attr interpolationmode none
attr recordingmode vector(packetBytes)
attr source packetReceivedFromUpper
attr title "packets received from higher layer, packetBytes"
vector 80 Scenario.node[1].lo[0].lo passedUpPk:vector(packetBytes) ETV
attr interpolationmode none
attr recordingmode vector(packetBytes)
attr source packetSentToUpper
attr title "packets passed to higher layer, packetBytes"
vector 81 Scenario.node[1].wlan[0].mac packetReceivedFromUpper:vector(packetBytes) ETV
attr interpolationmode none
attr recordingmode vector(packetBytes)
attr title "packets received from upper layer, packetBytes"
vector 82 Scenario.node[1].wlan[0].mac.dcf.channelAccess.pendingQueue incomingPacketLengths:vector ETV
attr interpolationmode none
attr recordingmode vector
attr source packetLength(packetPushStarted)
attr title "incoming packet lengths"
attr unit b
vector 83 Scenario.node[1].wlan[0].mac.dcf.channelAccess.pendingQueue incomingDataRate:vector ETV
attr interpolationmode linear
attr recordingmode vector
attr source throughput(packetPushStarted)
attr title "incoming datarate"
attr unit bps
vector 84 Scenario.node[1].wlan[0].mac.dcf.channelAccess.pendingQueue queueLength:vector ETV
attr autoWarmupFilter false
attr interpolationmode sample-hold
attr recordingmode vector
attr source "warmup(atomic(constant0(packetPushEnded) + count(packetPushStarted) - count(packetPulled) - count(packetRemoved) - count(packetDropped)))"
attr title "queue length"
attr unit pk
vector 85 Scenario.node[1].wlan[0].mac.dcf.channelAccess.pendingQueue queueBitLength:vector ETV
attr autoWarmupFilter false
attr interpolationmode sample-hold
attr recordingmode vector
attr source "warmup(atomic(constant0(packetPushEnded) + sum(packetLength(packetPushStarted)) - sum(packetLength(packetPulled)) - sum(packetLength(packetRemoved)) - sum(packetLength(packetDropped))))"
attr title "queue bit length"
attr unit b
vector 86 Scenario.node[1].wlan[0].mac.dcf.channelAccess.contention backoffPeriodGenerated:vector ETV
attr interpolationmode none
attr recordingmode vector
attr title "backoff periods"
<<<<<<< HEAD
vector 87 Scenario.node[2].wlan[0].mac packetReceivedFromLower:vector(packetBytes) ETV
attr interpolationmode none
attr recordingmode vector(packetBytes)
attr title "packets received from lower layer, packetBytes"
vector 88 Scenario.node[2].wlan[0].mac.dcf packetReceivedFromPeer:vector(packetBytes) ETV
attr interpolationmode none
attr recordingmode vector(packetBytes)
attr title "packets received, packetBytes"
vector 89 Scenario.node[2].wlan[0].mac.dcf packetReceivedFromPeerMulticast:vector(packetBytes) ETV
attr interpolationmode none
attr recordingmode vector(packetBytes)
attr source ieee80211Multicast(packetReceivedFromPeer)
attr title "packets received: multicast, packetBytes"
vector 90 Scenario.node[2].wlan[0].mac.dcf packetReceivedFromPeerWithoutRetry:vector(packetBytes) ETV
attr interpolationmode none
attr recordingmode vector(packetBytes)
attr source ieee80211NotRetry(packetReceivedFromPeer)
attr title "packets received: without retry, packetBytes"
vector 91 Scenario.node[2].wlan[0].mac packetSentToUpper:vector(packetBytes) ETV
attr interpolationmode none
attr recordingmode vector(packetBytes)
attr title "packets sent to upper layer, packetBytes"
vector 92 Scenario.node[2].udp packetReceived:vector(packetBytes) ETV
attr interpolationmode none
attr recordingmode vector(packetBytes)
attr source packetReceived
attr title "packets received, packetBytes"
vector 93 Scenario.node[2].app[0] packetReceived:vector(packetBytes) ETV
attr interpolationmode none
attr recordingmode vector(packetBytes)
attr source packetReceived
attr title "packets received, packetBytes"
vector 94 Scenario.node[2].app[0] throughput:vector ETV
attr recordingmode vector
attr source throughput(packetReceived)
attr title throughput
attr unit bps
vector 95 Scenario.node[2].app[0] rcvdPkLifetime:vector ETV
attr interpolationmode none
attr recordingmode vector
attr source dataAge(packetReceived)
attr title "received packet lifetime"
attr unit s
vector 96 Scenario.node[1].wlan[0].mac.dcf.channelAccess.pendingQueue queueingTime:vector ETV
=======
vector 87 Scenario.node[1].wlan[0].mac.dcf.channelAccess.pendingQueue queueingTime:vector ETV
>>>>>>> cb40c32b5605b182eb28a7bfd6f1ddcc854b381a
attr interpolationmode none
attr recordingmode vector
attr source queueingTime(packetPulled)
attr title "queueing times"
attr unit s
<<<<<<< HEAD
vector 97 Scenario.node[1].wlan[0].mac.dcf.channelAccess.pendingQueue outgoingPacketLengths:vector ETV
=======
vector 88 Scenario.node[1].wlan[0].mac.dcf.channelAccess.pendingQueue outgoingPacketLengths:vector ETV
>>>>>>> cb40c32b5605b182eb28a7bfd6f1ddcc854b381a
attr interpolationmode none
attr recordingmode vector
attr source packetLength(packetPulled)
attr title "outgoing packet lengths"
attr unit b
<<<<<<< HEAD
vector 98 Scenario.node[1].wlan[0].mac.dcf.channelAccess.pendingQueue outgoingDataRate:vector ETV
=======
vector 89 Scenario.node[1].wlan[0].mac.dcf.channelAccess.pendingQueue outgoingDataRate:vector ETV
>>>>>>> cb40c32b5605b182eb28a7bfd6f1ddcc854b381a
attr interpolationmode linear
attr recordingmode vector
attr source throughput(packetPulled)
attr title "outgoing datarate"
attr unit bps
<<<<<<< HEAD
vector 99 Scenario.node[1].wlan[0].mac.dcf datarateSelected:vector ETV
attr interpolationmode none
attr recordingmode vector
attr title "datarates selected"
vector 100 Scenario.node[1].wlan[0].mac packetSentToLower:vector(packetBytes) ETV
attr interpolationmode none
attr recordingmode vector(packetBytes)
attr title "packets sent to lower layer, packetBytes"
vector 101 Scenario.node[1].wlan[0].radio transmissionState:vector ETV
=======
vector 90 Scenario.node[1].wlan[0].mac.dcf datarateSelected:vector ETV
attr interpolationmode none
attr recordingmode vector
attr title "datarates selected"
vector 91 Scenario.node[1].wlan[0].mac packetSentToLower:vector(packetBytes) ETV
attr interpolationmode none
attr recordingmode vector(packetBytes)
attr title "packets sent to lower layer, packetBytes"
vector 92 Scenario.node[1].wlan[0].radio transmissionState:vector ETV
>>>>>>> cb40c32b5605b182eb28a7bfd6f1ddcc854b381a
attr interpolationmode sample-hold
attr recordingmode vector
attr source transmissionStateChanged
attr title "Radio transmission state"
<<<<<<< HEAD
vector 102 Scenario.node[1].wlan[0].mac.dcf packetSentToPeer:vector(packetBytes) ETV
attr interpolationmode none
attr recordingmode vector(packetBytes)
attr title "packets sent, packetBytes"
vector 103 Scenario.node[1].wlan[0].mac.dcf packetSentToPeerMulticast:vector(packetBytes) ETV
=======
vector 93 Scenario.node[1].wlan[0].mac.dcf packetSentToPeer:vector(packetBytes) ETV
attr interpolationmode none
attr recordingmode vector(packetBytes)
attr title "packets sent, packetBytes"
vector 94 Scenario.node[1].wlan[0].mac.dcf packetSentToPeerMulticast:vector(packetBytes) ETV
>>>>>>> cb40c32b5605b182eb28a7bfd6f1ddcc854b381a
attr interpolationmode none
attr recordingmode vector(packetBytes)
attr source ieee80211Multicast(packetSentToPeer)
attr title "packets sent: multicast, packetBytes"
<<<<<<< HEAD
vector 104 Scenario.node[1].wlan[0].mac.dcf packetSentToPeerWithoutRetry:vector(packetBytes) ETV
=======
vector 95 Scenario.node[1].wlan[0].mac.dcf packetSentToPeerWithoutRetry:vector(packetBytes) ETV
>>>>>>> cb40c32b5605b182eb28a7bfd6f1ddcc854b381a
attr interpolationmode none
attr recordingmode vector(packetBytes)
attr source ieee80211NotRetry(packetSentToPeer)
attr title "packets sent: without retry, packetBytes"
<<<<<<< HEAD
vector 105 Scenario.node[1].wlan[0].mac.dcf.channelAccess.inProgressFrames queueingTime:vector ETV
=======
vector 96 Scenario.node[1].wlan[0].mac.dcf.channelAccess.inProgressFrames queueingTime:vector ETV
>>>>>>> cb40c32b5605b182eb28a7bfd6f1ddcc854b381a
attr interpolationmode none
attr recordingmode vector
attr source queueingTime(packetDequeued)
attr title "queueing times"
<<<<<<< HEAD
vector 106 Scenario.node[0].wlan[0].mac packetReceivedFromLower:vector(packetBytes) ETV
attr interpolationmode none
attr recordingmode vector(packetBytes)
attr title "packets received from lower layer, packetBytes"
vector 107 Scenario.node[0].wlan[0].mac.dcf packetReceivedFromPeer:vector(packetBytes) ETV
attr interpolationmode none
attr recordingmode vector(packetBytes)
attr title "packets received, packetBytes"
vector 108 Scenario.node[0].wlan[0].mac.dcf packetReceivedFromPeerMulticast:vector(packetBytes) ETV
=======
vector 97 Scenario.node[0].wlan[0].mac packetReceivedFromLower:vector(packetBytes) ETV
attr interpolationmode none
attr recordingmode vector(packetBytes)
attr title "packets received from lower layer, packetBytes"
vector 98 Scenario.node[0].wlan[0].mac.dcf packetReceivedFromPeer:vector(packetBytes) ETV
attr interpolationmode none
attr recordingmode vector(packetBytes)
attr title "packets received, packetBytes"
vector 99 Scenario.node[0].wlan[0].mac.dcf packetReceivedFromPeerMulticast:vector(packetBytes) ETV
>>>>>>> cb40c32b5605b182eb28a7bfd6f1ddcc854b381a
attr interpolationmode none
attr recordingmode vector(packetBytes)
attr source ieee80211Multicast(packetReceivedFromPeer)
attr title "packets received: multicast, packetBytes"
<<<<<<< HEAD
vector 109 Scenario.node[0].wlan[0].mac.dcf packetReceivedFromPeerWithoutRetry:vector(packetBytes) ETV
=======
vector 100 Scenario.node[0].wlan[0].mac.dcf packetReceivedFromPeerWithoutRetry:vector(packetBytes) ETV
>>>>>>> cb40c32b5605b182eb28a7bfd6f1ddcc854b381a
attr interpolationmode none
attr recordingmode vector(packetBytes)
attr source ieee80211NotRetry(packetReceivedFromPeer)
attr title "packets received: without retry, packetBytes"
<<<<<<< HEAD
vector 110 Scenario.node[0].wlan[0].mac packetSentToUpper:vector(packetBytes) ETV
attr interpolationmode none
attr recordingmode vector(packetBytes)
attr title "packets sent to upper layer, packetBytes"
vector 111 Scenario.node[3].wlan[0].mac packetReceivedFromLower:vector(packetBytes) ETV
attr interpolationmode none
attr recordingmode vector(packetBytes)
attr title "packets received from lower layer, packetBytes"
vector 112 Scenario.node[3].wlan[0].mac.dcf packetReceivedFromPeer:vector(packetBytes) ETV
attr interpolationmode none
attr recordingmode vector(packetBytes)
attr title "packets received, packetBytes"
vector 113 Scenario.node[3].wlan[0].mac.dcf packetReceivedFromPeerMulticast:vector(packetBytes) ETV
=======
vector 101 Scenario.node[0].wlan[0].mac packetSentToUpper:vector(packetBytes) ETV
attr interpolationmode none
attr recordingmode vector(packetBytes)
attr title "packets sent to upper layer, packetBytes"
vector 102 Scenario.node[2].wlan[0].mac packetReceivedFromLower:vector(packetBytes) ETV
attr interpolationmode none
attr recordingmode vector(packetBytes)
attr title "packets received from lower layer, packetBytes"
vector 103 Scenario.node[2].wlan[0].mac.dcf packetReceivedFromPeer:vector(packetBytes) ETV
attr interpolationmode none
attr recordingmode vector(packetBytes)
attr title "packets received, packetBytes"
vector 104 Scenario.node[2].wlan[0].mac.dcf packetReceivedFromPeerMulticast:vector(packetBytes) ETV
>>>>>>> cb40c32b5605b182eb28a7bfd6f1ddcc854b381a
attr interpolationmode none
attr recordingmode vector(packetBytes)
attr source ieee80211Multicast(packetReceivedFromPeer)
attr title "packets received: multicast, packetBytes"
<<<<<<< HEAD
vector 114 Scenario.node[3].wlan[0].mac.dcf packetReceivedFromPeerWithoutRetry:vector(packetBytes) ETV
=======
vector 105 Scenario.node[2].wlan[0].mac.dcf packetReceivedFromPeerWithoutRetry:vector(packetBytes) ETV
>>>>>>> cb40c32b5605b182eb28a7bfd6f1ddcc854b381a
attr interpolationmode none
attr recordingmode vector(packetBytes)
attr source ieee80211NotRetry(packetReceivedFromPeer)
attr title "packets received: without retry, packetBytes"
<<<<<<< HEAD
vector 115 Scenario.node[3].wlan[0].mac packetSentToUpper:vector(packetBytes) ETV
attr interpolationmode none
attr recordingmode vector(packetBytes)
attr title "packets sent to upper layer, packetBytes"
vector 116 Scenario.node[3].udp packetReceived:vector(packetBytes) ETV
=======
vector 106 Scenario.node[2].wlan[0].mac packetSentToUpper:vector(packetBytes) ETV
attr interpolationmode none
attr recordingmode vector(packetBytes)
attr title "packets sent to upper layer, packetBytes"
vector 107 Scenario.node[2].udp packetReceived:vector(packetBytes) ETV
>>>>>>> cb40c32b5605b182eb28a7bfd6f1ddcc854b381a
attr interpolationmode none
attr recordingmode vector(packetBytes)
attr source packetReceived
attr title "packets received, packetBytes"
<<<<<<< HEAD
vector 117 Scenario.node[3].app[0] packetReceived:vector(packetBytes) ETV
=======
vector 108 Scenario.node[2].app[0] packetReceived:vector(packetBytes) ETV
>>>>>>> cb40c32b5605b182eb28a7bfd6f1ddcc854b381a
attr interpolationmode none
attr recordingmode vector(packetBytes)
attr source packetReceived
attr title "packets received, packetBytes"
<<<<<<< HEAD
vector 118 Scenario.node[3].app[0] throughput:vector ETV
=======
vector 109 Scenario.node[2].app[0] throughput:vector ETV
>>>>>>> cb40c32b5605b182eb28a7bfd6f1ddcc854b381a
attr recordingmode vector
attr source throughput(packetReceived)
attr title throughput
attr unit bps
<<<<<<< HEAD
vector 119 Scenario.node[3].app[0] rcvdPkLifetime:vector ETV
=======
vector 110 Scenario.node[2].app[0] rcvdPkLifetime:vector ETV
>>>>>>> cb40c32b5605b182eb28a7bfd6f1ddcc854b381a
attr interpolationmode none
attr recordingmode vector
attr source dataAge(packetReceived)
attr title "received packet lifetime"
attr unit s
<<<<<<< HEAD
vector 120 Scenario.node[2].app[0] packetSent:vector(packetBytes) ETV
=======
vector 111 Scenario.node[2].app[0] packetSent:vector(packetBytes) ETV
>>>>>>> cb40c32b5605b182eb28a7bfd6f1ddcc854b381a
attr interpolationmode none
attr recordingmode vector(packetBytes)
attr source packetSent
attr title "packets sent, packetBytes"
<<<<<<< HEAD
vector 121 Scenario.node[2].udp packetSent:vector(packetBytes) ETV
=======
vector 112 Scenario.node[2].udp packetSent:vector(packetBytes) ETV
>>>>>>> cb40c32b5605b182eb28a7bfd6f1ddcc854b381a
attr interpolationmode none
attr recordingmode vector(packetBytes)
attr source packetSent
attr title "packets sent, packetBytes"
<<<<<<< HEAD
vector 122 Scenario.node[2].lo[0].lo rcvdPkFromHl:vector(packetBytes) ETV
=======
vector 113 Scenario.node[2].lo[0].lo rcvdPkFromHl:vector(packetBytes) ETV
>>>>>>> cb40c32b5605b182eb28a7bfd6f1ddcc854b381a
attr interpolationmode none
attr recordingmode vector(packetBytes)
attr source packetReceivedFromUpper
attr title "packets received from higher layer, packetBytes"
<<<<<<< HEAD
vector 123 Scenario.node[2].lo[0].lo passedUpPk:vector(packetBytes) ETV
=======
vector 114 Scenario.node[2].lo[0].lo passedUpPk:vector(packetBytes) ETV
>>>>>>> cb40c32b5605b182eb28a7bfd6f1ddcc854b381a
attr interpolationmode none
attr recordingmode vector(packetBytes)
attr source packetSentToUpper
attr title "packets passed to higher layer, packetBytes"
<<<<<<< HEAD
vector 124 Scenario.node[2].wlan[0].mac packetReceivedFromUpper:vector(packetBytes) ETV
attr interpolationmode none
attr recordingmode vector(packetBytes)
attr title "packets received from upper layer, packetBytes"
vector 125 Scenario.node[2].wlan[0].mac.dcf.channelAccess.pendingQueue incomingPacketLengths:vector ETV
=======
vector 115 Scenario.node[2].wlan[0].mac packetReceivedFromUpper:vector(packetBytes) ETV
attr interpolationmode none
attr recordingmode vector(packetBytes)
attr title "packets received from upper layer, packetBytes"
vector 116 Scenario.node[2].wlan[0].mac.dcf.channelAccess.pendingQueue incomingPacketLengths:vector ETV
>>>>>>> cb40c32b5605b182eb28a7bfd6f1ddcc854b381a
attr interpolationmode none
attr recordingmode vector
attr source packetLength(packetPushStarted)
attr title "incoming packet lengths"
attr unit b
<<<<<<< HEAD
vector 126 Scenario.node[2].wlan[0].mac.dcf.channelAccess.pendingQueue incomingDataRate:vector ETV
=======
vector 117 Scenario.node[2].wlan[0].mac.dcf.channelAccess.pendingQueue incomingDataRate:vector ETV
>>>>>>> cb40c32b5605b182eb28a7bfd6f1ddcc854b381a
attr interpolationmode linear
attr recordingmode vector
attr source throughput(packetPushStarted)
attr title "incoming datarate"
attr unit bps
<<<<<<< HEAD
vector 127 Scenario.node[2].wlan[0].mac.dcf.channelAccess.pendingQueue queueLength:vector ETV
=======
vector 118 Scenario.node[2].wlan[0].mac.dcf.channelAccess.pendingQueue queueLength:vector ETV
>>>>>>> cb40c32b5605b182eb28a7bfd6f1ddcc854b381a
attr autoWarmupFilter false
attr interpolationmode sample-hold
attr recordingmode vector
attr source "warmup(atomic(constant0(packetPushEnded) + count(packetPushStarted) - count(packetPulled) - count(packetRemoved) - count(packetDropped)))"
attr title "queue length"
attr unit pk
<<<<<<< HEAD
vector 128 Scenario.node[2].wlan[0].mac.dcf.channelAccess.pendingQueue queueBitLength:vector ETV
=======
vector 119 Scenario.node[2].wlan[0].mac.dcf.channelAccess.pendingQueue queueBitLength:vector ETV
>>>>>>> cb40c32b5605b182eb28a7bfd6f1ddcc854b381a
attr autoWarmupFilter false
attr interpolationmode sample-hold
attr recordingmode vector
attr source "warmup(atomic(constant0(packetPushEnded) + sum(packetLength(packetPushStarted)) - sum(packetLength(packetPulled)) - sum(packetLength(packetRemoved)) - sum(packetLength(packetDropped))))"
attr title "queue bit length"
attr unit b
<<<<<<< HEAD
vector 129 Scenario.node[2].wlan[0].mac.dcf.channelAccess.contention backoffPeriodGenerated:vector ETV
attr interpolationmode none
attr recordingmode vector
attr title "backoff periods"
vector 130 Scenario.node[2].wlan[0].mac.dcf.channelAccess.pendingQueue queueingTime:vector ETV
=======
vector 120 Scenario.node[2].wlan[0].mac.dcf.channelAccess.contention backoffPeriodGenerated:vector ETV
attr interpolationmode none
attr recordingmode vector
attr title "backoff periods"
vector 121 Scenario.node[2].wlan[0].mac.dcf.channelAccess.pendingQueue queueingTime:vector ETV
>>>>>>> cb40c32b5605b182eb28a7bfd6f1ddcc854b381a
attr interpolationmode none
attr recordingmode vector
attr source queueingTime(packetPulled)
attr title "queueing times"
attr unit s
<<<<<<< HEAD
vector 131 Scenario.node[2].wlan[0].mac.dcf.channelAccess.pendingQueue outgoingPacketLengths:vector ETV
=======
vector 122 Scenario.node[2].wlan[0].mac.dcf.channelAccess.pendingQueue outgoingPacketLengths:vector ETV
>>>>>>> cb40c32b5605b182eb28a7bfd6f1ddcc854b381a
attr interpolationmode none
attr recordingmode vector
attr source packetLength(packetPulled)
attr title "outgoing packet lengths"
attr unit b
<<<<<<< HEAD
vector 132 Scenario.node[2].wlan[0].mac.dcf.channelAccess.pendingQueue outgoingDataRate:vector ETV
=======
vector 123 Scenario.node[2].wlan[0].mac.dcf.channelAccess.pendingQueue outgoingDataRate:vector ETV
>>>>>>> cb40c32b5605b182eb28a7bfd6f1ddcc854b381a
attr interpolationmode linear
attr recordingmode vector
attr source throughput(packetPulled)
attr title "outgoing datarate"
attr unit bps
<<<<<<< HEAD
vector 133 Scenario.node[2].wlan[0].mac.dcf datarateSelected:vector ETV
attr interpolationmode none
attr recordingmode vector
attr title "datarates selected"
vector 134 Scenario.node[2].wlan[0].mac packetSentToLower:vector(packetBytes) ETV
attr interpolationmode none
attr recordingmode vector(packetBytes)
attr title "packets sent to lower layer, packetBytes"
vector 135 Scenario.node[2].wlan[0].radio transmissionState:vector ETV
=======
vector 124 Scenario.node[2].wlan[0].mac.dcf datarateSelected:vector ETV
attr interpolationmode none
attr recordingmode vector
attr title "datarates selected"
vector 125 Scenario.node[2].wlan[0].mac packetSentToLower:vector(packetBytes) ETV
attr interpolationmode none
attr recordingmode vector(packetBytes)
attr title "packets sent to lower layer, packetBytes"
vector 126 Scenario.node[2].wlan[0].radio transmissionState:vector ETV
>>>>>>> cb40c32b5605b182eb28a7bfd6f1ddcc854b381a
attr interpolationmode sample-hold
attr recordingmode vector
attr source transmissionStateChanged
attr title "Radio transmission state"
<<<<<<< HEAD
vector 136 Scenario.node[2].wlan[0].mac.dcf packetSentToPeer:vector(packetBytes) ETV
attr interpolationmode none
attr recordingmode vector(packetBytes)
attr title "packets sent, packetBytes"
vector 137 Scenario.node[2].wlan[0].mac.dcf packetSentToPeerMulticast:vector(packetBytes) ETV
=======
vector 127 Scenario.node[1].wlan[0].mac packetDrop:vector(packetBytes) ETV
attr interpolationmode none
attr recordingmode vector(packetBytes)
attr source packetDropped
attr title "packet drops, packetBytes"
vector 128 Scenario.node[1].wlan[0].mac packetDropIncorrectlyReceived:vector(packetBytes) ETV
attr interpolationmode none
attr recordingmode vector(packetBytes)
attr source packetDropReasonIsIncorrectlyReceived(packetDropped)
attr title "packet drops: incorrectly received, packetBytes"
vector 129 Scenario.node[2].wlan[0].mac.dcf packetSentToPeer:vector(packetBytes) ETV
attr interpolationmode none
attr recordingmode vector(packetBytes)
attr title "packets sent, packetBytes"
vector 130 Scenario.node[2].wlan[0].mac.dcf packetSentToPeerMulticast:vector(packetBytes) ETV
>>>>>>> cb40c32b5605b182eb28a7bfd6f1ddcc854b381a
attr interpolationmode none
attr recordingmode vector(packetBytes)
attr source ieee80211Multicast(packetSentToPeer)
attr title "packets sent: multicast, packetBytes"
<<<<<<< HEAD
vector 138 Scenario.node[2].wlan[0].mac.dcf packetSentToPeerWithoutRetry:vector(packetBytes) ETV
=======
vector 131 Scenario.node[2].wlan[0].mac.dcf packetSentToPeerWithoutRetry:vector(packetBytes) ETV
>>>>>>> cb40c32b5605b182eb28a7bfd6f1ddcc854b381a
attr interpolationmode none
attr recordingmode vector(packetBytes)
attr source ieee80211NotRetry(packetSentToPeer)
attr title "packets sent: without retry, packetBytes"
<<<<<<< HEAD
vector 139 Scenario.node[2].wlan[0].mac.dcf.channelAccess.inProgressFrames queueingTime:vector ETV
=======
vector 132 Scenario.node[2].wlan[0].mac.dcf.channelAccess.inProgressFrames queueingTime:vector ETV
>>>>>>> cb40c32b5605b182eb28a7bfd6f1ddcc854b381a
attr interpolationmode none
attr recordingmode vector
attr source queueingTime(packetDequeued)
attr title "queueing times"
<<<<<<< HEAD
0	34520 155 2 603 0.1 30.004828271828 10 0 1 4 4
1	34675 166 2 603 0.1 30.004828271828 11 0 2 9 13
2	34841 344 2 632 0.1 30.005813403442 19 0 1 9 9
3	35185 197 2 636 0.1 30.005813403442 11 0 10 55 385
4	35382 10 2 2 0.1 0.1 1 0 0 0 0
5	35392 10 2 2 0.1 0.1 1 0 0 0 0
6	35402 165 2 604 0.1 30.004828271828 11 0 3 22 56
7	35567 10 2 2 0.1 0.1 1 3 3 3 9
8	35577 383 2 632 0.1 30.005813403442 19 0 3 25 55
9	35960 1030 2 632 0.1 30.005813403442 56 0 2 46 80
10	36990 12 2 2 0.1 0.1 1 15 15 15 225
11	37002 222 55 630 5.1 30.005813337635 10 0 1 4 4
12	37224 222 55 630 5.1 30.005813337635 10 0 2 8 12
13	37446 322 55 623 5.1 30.004925337635 14 0 1 6 6
14	37768 235 55 609 5.1 30.004828337635 10 0 9 45 285
15	38003 12 55 55 5.1 5.1 1 0 0 0 0
16	38015 12 55 55 5.1 5.1 1 0 0 0 0
17	38027 234 55 631 5.1 30.005813337635 11 0 3 22 56
18	38261 12 55 55 5.1 5.1 1 3 3 3 9
19	38273 458 55 631 5.1 30.005813337635 19 0 3 25 55
20	38731 1314 55 631 5.1 30.005813337635 54 0 2 36 60
21	40045 13 55 55 5.1 5.1 1 15 15 15 225
22	40058 103 108 651 10.1 30.005897408635 5 0 1 2 2
23	40161 103 108 576 10.1 30.003856136807 5 0 2 4 6
24	40264 328 108 650 10.1 30.005897408635 14 0 1 6 6
25	40592 239 108 642 10.1 30.005813408635 10 0 9 45 285
26	40831 14 108 108 10.1 10.1 1 0 0 0 0
27	40845 14 108 108 10.1 10.1 1 0 0 0 0
28	40859 117 108 652 10.1 30.005897408635 6 0 3 10 26
29	40976 14 108 108 10.1 10.1 1 3 3 3 9
30	40990 439 108 652 10.1 30.005897408635 18 0 3 30 72
31	41429 1078 108 652 10.1 30.005897408635 44 0 2 34 58
32	42507 15 108 108 10.1 10.1 1 15 15 15 225
33	42522 28 161 161 15.1 15.1 2 0 0 0 0
34	42550 28 161 161 15.1 15.1 2 0 0 0 0
35	42578 28 161 161 15.1 15.1 2 0 0 0 0
36	42606 164 161 648 15.1 30.005813567559 7 0 6 21 91
37	42770 14 161 161 15.1 15.1 1 0 0 0 0
38	42784 14 161 161 15.1 15.1 1 0 0 0 0
39	42798 42 161 161 15.1 15.1 3 0 2 2 4
40	42840 14 161 161 15.1 15.1 1 3 3 3 9
41	42854 314 161 644 15.1 30.005813567559 13 1 3 25 61
42	43168 628 161 644 15.1 30.005813567559 26 0 0 0 0
43	43796 15 161 161 15.1 15.1 1 15 15 15 225
44	43811 86 213 504 20 30.00191224774 5 100 1200 4900 5770000
45	43897 86 218 505 20 30.00191224774 5 108 1208 4940 5848720
46	43983 86 220 507 20 30.00191224774 5 128 1228 5040 6048320
47	44069 86 220 507 20 30.00191224774 5 128 1228 5040 6048320
48	44155 86 223 510 20 30.00191224774 5 130 1230 5050 6068500
49	44241 91 223 510 20 30.00191224774 5 1264 10064 41520 406734080
50	44332 4037 223 427 0.2 30 299 0 100640 113280 10288179200
51	48369 145 223 597 20 30.003940271828 10 0 2 7 9
52	48514 168 223 597 20 30.003940271828 10 0 20128 61648 811870464
53	48682 81 223 603 20 30.004828271828 5 4 12 38 322
54	48763 225 224 636 20 30.005813403442 10 108 1208 10980 13145040
55	48988 225 225 637 20 30.005813403442 10 100 1200 10900 12970000
56	49213 4036 225 432 0.2 30 299 0 192000 200000 36928000000
57	53249 261 225 637 20 30.005813403442 10 0 0.004925279572 0.014184095913 4.6888929229551e-05
58	53510 86 227 597 20 30.003940271828 5 0 0.002028024088 0.002028024088 4.1128817015082e-06
59	53596 92 227 597 20 30.003940271828 5 1264 10064 41520 406734080
60	53688 4037 227 435 0.2 30 299 0 100640 113280 10288179200
61	57725 89 227 597 20 30.003940271828 4 12000000 12000000 48000000 5.76e+14
62	57814 72 227 597 20 30.003940271828 4 158 1258 3932 4772656
63	57886 286 228 604 20 30.004828271828 16 0 2 16 24
64	58172 93 233 603 20.000152 30.004828271828 4 158 1258 3932 4772656
65	58265 93 233 603 20.000152 30.004828271828 4 158 1258 3932 4772656
66	58358 93 233 603 20.000152 30.004828271828 4 158 1258 3932 4772656
67	58451 116 233 603 20.000152 30.004828271828 4 0.000152 0.004828271828 0.006756271828 2.4912400845058e-05
68	58567 138 236 606 20.000152222718 30.004828337635 5 158 1258 5190 6355220
69	58705 138 236 606 20.000152222718 30.004828337635 5 158 1258 5190 6355220
70	58843 138 236 606 20.000152222718 30.004828337635 5 158 1258 5190 6355220
71	58981 138 236 606 20.000152222718 30.004828337635 5 158 1258 5190 6355220
72	59119 138 236 606 20.000152222718 30.004828337635 5 130 1230 5050 6068500
73	59257 249 239 609 20.000152222718 30.004828337635 9 108 1208 9772 11685776
74	59506 249 240 610 20.000152222718 30.004828337635 9 100 1200 9700 11530000
75	59755 3396 240 457 5.2 30 249 0 192000 200000 36928000000
76	63151 287 240 610 20.000152222718 30.004828337635 9 0 0.004828337635 0.009724659536 3.3721927795264e-05
77	63438 111 314 467 25.000152222718 30.00088812387 4 1200 1200 4800 5760000
78	63549 111 315 468 25.000152222718 30.00088812387 4 1208 1208 4832 5837056
79	63660 111 317 470 25.000152222718 30.00088812387 4 1228 1228 4912 6031936
80	63771 111 317 470 25.000152222718 30.00088812387 4 1228 1228 4912 6031936
81	63882 111 320 473 25.000152222718 30.00088812387 4 1230 1230 4920 6051600
82	63993 115 320 473 25.000152222718 30.00088812387 4 10064 10064 40256 405136384
83	64108 3393 320 452 5.2 30 249 0 100640 100640 10128409600
84	67501 198 320 543 25.000152222718 30.002009065807 8 0 3 10 20
85	67699 222 320 543 25.000152222718 30.002009065807 8 0 30192 100640 2025681920
86	67921 100 320 549 25.000152222718 30.002897065807 4 1 8 21 137
87	68021 196 332 639 25.000888298301 30.005813408635 7 1258 1258 8806 11077948
88	68217 196 332 639 25.000888298301 30.005813408635 7 1258 1258 8806 11077948
89	68413 196 332 639 25.000888298301 30.005813408635 7 1258 1258 8806 11077948
90	68609 196 332 639 25.000888298301 30.005813408635 7 1258 1258 8806 11077948
91	68805 196 332 639 25.000888298301 30.005813408635 7 1230 1230 8610 10590300
92	69001 252 335 642 25.000888298301 30.005813408635 9 1208 1208 10872 13133376
93	69253 252 336 643 25.000888298301 30.005813408635 9 1200 1200 10800 12960000
94	69505 2751 336 481 10.2 30 199 0 192000 192000 36864000000
95	72256 316 336 643 25.000888298301 30.005813408635 9 0 0.004925284765 0.017821047415 6.2971774840589e-05
96	72572 151 339 543 25.00102412387 30.002009065807 4 0.000871901152 0.001120941937 0.003788529267 3.6289668699144e-06
97	72723 115 339 543 25.00102412387 30.002009065807 4 10064 10064 40256 405136384
98	72838 3393 339 498 5.2 30 249 0 100640 100640 10128409600
99	76231 127 339 624 25.00102412387 30.004925337635 4 12000000 12000000 48000000 5.76e+14
100	76358 115 339 624 25.00102412387 30.004925337635 4 1258 1258 5032 6330256
101	76473 412 340 631 25.00102412387 30.005813337635 16 0 2 16 24
102	76885 115 345 630 25.00191212387 30.005813337635 4 1258 1258 5032 6330256
103	77000 115 345 630 25.00191212387 30.005813337635 4 1258 1258 5032 6330256
104	77115 115 345 630 25.00191212387 30.005813337635 4 1258 1258 5032 6330256
105	77230 137 345 630 25.00191212387 30.005813337635 4 0.000888 0.003804271828 0.007427271828 1.9460981141314e-05
106	77367 144 348 633 25.00191224774 30.005813403442 5 1258 1258 6290 7912820
107	77511 144 348 633 25.00191224774 30.005813403442 5 1258 1258 6290 7912820
108	77655 144 348 633 25.00191224774 30.005813403442 5 1258 1258 6290 7912820
109	77799 144 348 633 25.00191224774 30.005813403442 5 1258 1258 6290 7912820
110	77943 144 348 633 25.00191224774 30.005813403442 5 1230 1230 6150 7564500
111	78087 174 483 645 30.000888293503 30.005813567559 6 1258 1258 7548 9495384
112	78261 174 483 645 30.000888293503 30.005813567559 6 1258 1258 7548 9495384
113	78435 174 483 645 30.000888293503 30.005813567559 6 1258 1258 7548 9495384
114	78609 174 483 645 30.000888293503 30.005813567559 6 1258 1258 7548 9495384
115	78783 174 483 645 30.000888293503 30.005813567559 6 1230 1230 7380 9077400
116	78957 174 486 648 30.000888293503 30.005813567559 6 1208 1208 7248 8755584
117	79131 174 487 649 30.000888293503 30.005813567559 6 1200 1200 7200 8640000
118	79305 2205 487 487 15.2 30 149 0 0 0 0
119	81510 234 487 649 30.000888293503 30.005813567559 6 0.000888293503 0.004925443689 0.018141464031 6.7898702592577e-05
120	81744 58 488 513 30.000888298301 30.001912317019 2 1200 1200 2400 2880000
121	81802 58 489 514 30.000888298301 30.001912317019 2 1208 1208 2416 2918528
122	81860 58 491 516 30.000888298301 30.001912317019 2 1228 1228 2456 3015968
123	81918 58 491 516 30.000888298301 30.001912317019 2 1228 1228 2456 3015968
124	81976 58 494 519 30.000888298301 30.001912317019 2 1230 1230 2460 3025800
125	82034 60 494 519 30.000888298301 30.001912317019 2 10064 10064 20128 202568192
126	82094 2945 494 494 10.2 30 199 0 0 0 0
127	85039 104 494 570 30.000888298301 30.002968136807 4 0 2 4 6
128	85143 116 494 570 30.000888298301 30.002968136807 4 0 20128 40256 607704576
129	85259 53 494 576 30.000888298301 30.003856136807 2 7 10 17 149
130	85312 78 570 570 30.002968136807 30.002968136807 2 0.001055819788 0.002079838506 0.003135658294 5.4404836357727e-06
131	85390 60 570 570 30.002968136807 30.002968136807 2 10064 10064 20128 202568192
132	85450 2945 570 570 10.2 30 199 0 0 0 0
133	88395 66 570 651 30.002968136807 30.005897408635 2 12000000 12000000 24000000 2.88e+14
134	88461 58 570 651 30.002968136807 30.005897408635 2 1258 1258 2516 3165128
135	88519 156 571 653 30.002968136807 30.005897408635 6 0 2 7 11
136	88675 29 576 576 30.003856136807 30.003856136807 1 1258 1258 1258 1582564
137	88704 29 576 576 30.003856136807 30.003856136807 1 1258 1258 1258 1582564
138	88733 29 576 576 30.003856136807 30.003856136807 1 1258 1258 1258 1582564
139	88762 33 576 576 30.003856136807 30.003856136807 1 0.000888 0.000888 0.000888 7.88544e-07
vector 140 Scenario.node[3].app[0] packetSent:vector(packetBytes) ETV
=======
vector 133 Scenario.node[3].wlan[0].mac packetReceivedFromLower:vector(packetBytes) ETV
attr interpolationmode none
attr recordingmode vector(packetBytes)
attr title "packets received from lower layer, packetBytes"
vector 134 Scenario.node[3].wlan[0].mac.dcf packetReceivedFromPeer:vector(packetBytes) ETV
attr interpolationmode none
attr recordingmode vector(packetBytes)
attr title "packets received, packetBytes"
vector 135 Scenario.node[3].wlan[0].mac.dcf packetReceivedFromPeerMulticast:vector(packetBytes) ETV
attr interpolationmode none
attr recordingmode vector(packetBytes)
attr source ieee80211Multicast(packetReceivedFromPeer)
attr title "packets received: multicast, packetBytes"
vector 136 Scenario.node[3].wlan[0].mac.dcf packetReceivedFromPeerWithoutRetry:vector(packetBytes) ETV
attr interpolationmode none
attr recordingmode vector(packetBytes)
attr source ieee80211NotRetry(packetReceivedFromPeer)
attr title "packets received: without retry, packetBytes"
vector 137 Scenario.node[3].wlan[0].mac packetSentToUpper:vector(packetBytes) ETV
attr interpolationmode none
attr recordingmode vector(packetBytes)
attr title "packets sent to upper layer, packetBytes"
vector 138 Scenario.node[3].udp packetReceived:vector(packetBytes) ETV
attr interpolationmode none
attr recordingmode vector(packetBytes)
attr source packetReceived
attr title "packets received, packetBytes"
vector 139 Scenario.node[3].app[0] packetReceived:vector(packetBytes) ETV
attr interpolationmode none
attr recordingmode vector(packetBytes)
attr source packetReceived
attr title "packets received, packetBytes"
vector 140 Scenario.node[3].app[0] throughput:vector ETV
attr recordingmode vector
attr source throughput(packetReceived)
attr title throughput
attr unit bps
vector 141 Scenario.node[3].app[0] rcvdPkLifetime:vector ETV
attr interpolationmode none
attr recordingmode vector
attr source dataAge(packetReceived)
attr title "received packet lifetime"
attr unit s
vector 142 Scenario.node[3].app[0] packetSent:vector(packetBytes) ETV
>>>>>>> cb40c32b5605b182eb28a7bfd6f1ddcc854b381a
attr interpolationmode none
attr recordingmode vector(packetBytes)
attr source packetSent
attr title "packets sent, packetBytes"
<<<<<<< HEAD
vector 141 Scenario.node[3].udp packetSent:vector(packetBytes) ETV
=======
vector 143 Scenario.node[3].udp packetSent:vector(packetBytes) ETV
>>>>>>> cb40c32b5605b182eb28a7bfd6f1ddcc854b381a
attr interpolationmode none
attr recordingmode vector(packetBytes)
attr source packetSent
attr title "packets sent, packetBytes"
<<<<<<< HEAD
vector 142 Scenario.node[3].lo[0].lo rcvdPkFromHl:vector(packetBytes) ETV
=======
vector 144 Scenario.node[3].lo[0].lo rcvdPkFromHl:vector(packetBytes) ETV
>>>>>>> cb40c32b5605b182eb28a7bfd6f1ddcc854b381a
attr interpolationmode none
attr recordingmode vector(packetBytes)
attr source packetReceivedFromUpper
attr title "packets received from higher layer, packetBytes"
<<<<<<< HEAD
vector 143 Scenario.node[3].lo[0].lo passedUpPk:vector(packetBytes) ETV
=======
vector 145 Scenario.node[3].lo[0].lo passedUpPk:vector(packetBytes) ETV
>>>>>>> cb40c32b5605b182eb28a7bfd6f1ddcc854b381a
attr interpolationmode none
attr recordingmode vector(packetBytes)
attr source packetSentToUpper
attr title "packets passed to higher layer, packetBytes"
<<<<<<< HEAD
vector 144 Scenario.node[3].wlan[0].mac packetReceivedFromUpper:vector(packetBytes) ETV
attr interpolationmode none
attr recordingmode vector(packetBytes)
attr title "packets received from upper layer, packetBytes"
vector 145 Scenario.node[3].wlan[0].mac.dcf.channelAccess.pendingQueue incomingPacketLengths:vector ETV
=======
vector 146 Scenario.node[3].wlan[0].mac packetReceivedFromUpper:vector(packetBytes) ETV
attr interpolationmode none
attr recordingmode vector(packetBytes)
attr title "packets received from upper layer, packetBytes"
vector 147 Scenario.node[3].wlan[0].mac.dcf.channelAccess.pendingQueue incomingPacketLengths:vector ETV
>>>>>>> cb40c32b5605b182eb28a7bfd6f1ddcc854b381a
attr interpolationmode none
attr recordingmode vector
attr source packetLength(packetPushStarted)
attr title "incoming packet lengths"
attr unit b
<<<<<<< HEAD
vector 146 Scenario.node[3].wlan[0].mac.dcf.channelAccess.pendingQueue incomingDataRate:vector ETV
=======
vector 148 Scenario.node[3].wlan[0].mac.dcf.channelAccess.pendingQueue incomingDataRate:vector ETV
>>>>>>> cb40c32b5605b182eb28a7bfd6f1ddcc854b381a
attr interpolationmode linear
attr recordingmode vector
attr source throughput(packetPushStarted)
attr title "incoming datarate"
attr unit bps
<<<<<<< HEAD
vector 147 Scenario.node[3].wlan[0].mac.dcf.channelAccess.pendingQueue queueLength:vector ETV
=======
vector 149 Scenario.node[3].wlan[0].mac.dcf.channelAccess.pendingQueue queueLength:vector ETV
>>>>>>> cb40c32b5605b182eb28a7bfd6f1ddcc854b381a
attr autoWarmupFilter false
attr interpolationmode sample-hold
attr recordingmode vector
attr source "warmup(atomic(constant0(packetPushEnded) + count(packetPushStarted) - count(packetPulled) - count(packetRemoved) - count(packetDropped)))"
attr title "queue length"
attr unit pk
<<<<<<< HEAD
vector 148 Scenario.node[3].wlan[0].mac.dcf.channelAccess.pendingQueue queueBitLength:vector ETV
=======
vector 150 Scenario.node[3].wlan[0].mac.dcf.channelAccess.pendingQueue queueBitLength:vector ETV
>>>>>>> cb40c32b5605b182eb28a7bfd6f1ddcc854b381a
attr autoWarmupFilter false
attr interpolationmode sample-hold
attr recordingmode vector
attr source "warmup(atomic(constant0(packetPushEnded) + sum(packetLength(packetPushStarted)) - sum(packetLength(packetPulled)) - sum(packetLength(packetRemoved)) - sum(packetLength(packetDropped))))"
attr title "queue bit length"
attr unit b
<<<<<<< HEAD
vector 149 Scenario.node[3].wlan[0].mac.dcf.channelAccess.contention backoffPeriodGenerated:vector ETV
attr interpolationmode none
attr recordingmode vector
attr title "backoff periods"
0	91350 95 678 925 30.006869543656 35.000959 5 0 1 3 3
1	91445 82 684 925 30.007757543656 35.000959 5 0 2 6 10
2	91527 130 655 924 30.005897543656 35.000959 7 0 1 3 3
3	91657 73 669 793 30.006785543656 35 5 11 15 65 855
6	91730 95 679 926 30.006869543656 35.000959 5 2 3 13 35
8	91825 143 655 926 30.005897543656 35.000959 7 0 3 6 12
9	91968 450 655 926 30.005897543656 35.000959 24 0 2 18 32
13	92418 25 850 850 35.000888065807 35.000888065807 1 1 1 1 1
14	92443 258 663 879 30.006785479635 35.00088812387 10 10 19 145 2185
19	92701 150 654 850 30.005897479635 35.000888065807 6 1 3 12 30
20	92851 350 654 850 30.005897479635 35.000888065807 14 0 2 4 6
22	93201 25 657 657 30.006785408635 30.006785408635 1 0 0 0 0
23	93226 25 657 657 30.006785408635 30.006785408635 1 0 0 0 0
24	93251 49 894 928 35.000888135021 35.00095902766 2 0 1 1 1
25	93300 129 696 921 30.007757678677 35.000888298301 5 10 14 60 730
28	93429 25 658 658 30.006785408635 30.006785408635 1 2 2 2 4
30	93454 147 658 928 30.006785408635 35.00095902766 6 1 3 12 30
31	93601 344 658 928 30.006785408635 35.00095902766 14 0 2 5 9
35	93945 25 903 903 35.000888293503 35.000888293503 1 1 1 1 1
36	93970 101 675 904 30.006785585611 35.000888293503 4 7 10 34 294
41	94071 150 656 882 30.005897585611 35.000888127972 6 1 3 12 30
42	94221 350 656 903 30.005897585611 35.000888293503 14 0 2 2 4
44	94571 60 761 764 35 35 4 1200 1200 4800 5760000
45	94631 60 766 769 35 35 4 1208 1208 4832 5837056
46	94691 60 774 780 35 35 4 1228 1228 4912 6031936
47	94751 60 774 780 35 35 4 1228 1228 4912 6031936
48	94811 60 783 789 35 35 4 1230 1230 4920 6051600
49	94871 64 783 789 35 35 4 10064 10064 40256 405136384
50	94935 695 783 783 30.1 35 50 0 301920 301920 91155686400
51	95630 91 783 925 35 35.000959 7 1 4 16 44
52	95721 119 783 925 35 35.000959 7 10064 40256 161024 4456500224
53	95840 32 783 841 35 35.000888 2 1 14 15 197
54	95872 88 669 793 30.006785543656 35 5 1208 1208 6040 7296320
55	95960 88 670 797 30.006785543656 35 5 1200 1200 6000 7200000
56	96048 695 794 794 30.1 35 50 0 768000 768000 589824000000
57	96743 86 670 797 30.006785543656 35 5 0 0.004873226637 0.004873226637 2.3748337855566e-05
58	96829 50 799 925 35 35.000959 3 0 0.000959 0.000959 9.19681e-07
59	96879 55 799 925 35 35.000959 3 10064 10064 30192 303852288
60	96934 695 799 799 30.1 35 50 0 301920 301920 91155686400
61	97629 77 678 925 30.006869543656 35.000959 3 12000000 12000000 36000000 4.32e+14
62	97706 65 678 925 30.006869543656 35.000959 3 1258 1258 3774 4747692
63	97771 200 679 927 30.006869543656 35.000959 10 0 2 11 17
64	97971 50 684 841 30.007757543656 35.000888 2 1258 1258 2516 3165128
65	98021 50 684 841 30.007757543656 35.000888 2 1258 1258 2516 3165128
66	98071 50 684 841 30.007757543656 35.000888 2 1258 1258 2516 3165128
67	98121 64 684 841 30.007757543656 35.000888 2 0.000888 0.003817271828 0.004705271828 1.5360108208842e-05
68	98185 84 660 852 30.006785479635 35.000888065807 3 1258 1258 3774 4747692
69	98269 84 660 852 30.006785479635 35.000888065807 3 1258 1258 3774 4747692
70	98353 84 660 852 30.006785479635 35.000888065807 3 1258 1258 3774 4747692
71	98437 84 660 852 30.006785479635 35.000888065807 3 1258 1258 3774 4747692
72	98521 84 660 852 30.006785479635 35.000888065807 3 1230 1230 3690 4538700
73	98605 278 663 879 30.006785479635 35.00088812387 10 1208 1208 12080 14592640
74	98883 278 664 881 30.006785479635 35.00088812387 10 1200 1200 12000 14400000
75	99161 695 837 837 30.1 35 50 0 768000 768000 589824000000
76	99856 287 664 881 30.006785479635 35.00088812387 10 0 0.005845361723 0.011606590146 5.8704628432256e-05
77	100143 194 805 865 35.000152222718 35.00088812387 7 1200 1200 8400 10080000
78	100337 194 809 867 35.000152222718 35.00088812387 7 1208 1208 8456 10214848
79	100531 194 817 872 35.000152222718 35.00088812387 7 1228 1228 8596 10555888
80	100725 194 817 872 35.000152222718 35.00088812387 7 1228 1228 8596 10555888
81	100919 194 826 877 35.000152222718 35.00088812387 7 1230 1230 8610 10590300
82	101113 201 826 877 35.000152222718 35.00088812387 7 10064 10064 70448 708988672
83	101314 695 826 826 30.1 35 50 0 301920 301920 91155686400
84	102009 173 826 877 35.000152222718 35.00088812387 7 1 7 28 140
85	102182 201 826 877 35.000152222718 35.00088812387 7 10064 70448 281792 14179773440
86	102383 25 826 826 35.000152222718 35.000152222718 1 8 8 8 64
87	102408 55 693 844 30.007757678677 35.00088802766 2 1258 1258 2516 3165128
88	102463 55 693 844 30.007757678677 35.00088802766 2 1258 1258 2516 3165128
89	102518 55 693 844 30.007757678677 35.00088802766 2 1258 1258 2516 3165128
90	102573 55 693 844 30.007757678677 35.00088802766 2 1258 1258 2516 3165128
91	102628 55 693 844 30.007757678677 35.00088802766 2 1230 1230 2460 3025800
92	102683 139 696 921 30.007757678677 35.000888298301 5 1208 1208 6040 7296320
93	102822 139 697 923 30.007757678677 35.000888298301 5 1200 1200 6000 7200000
94	102961 695 848 848 30.1 35 50 0 768000 768000 589824000000
95	103656 149 697 923 30.007757678677 35.000888298301 5 0 0.005845430937 0.006733458597 3.4957655964162e-05
106	103805 29 666 666 30.006785543656 30.006785543656 1 1258 1258 1258 1582564
107	103834 29 666 666 30.006785543656 30.006785543656 1 1258 1258 1258 1582564
108	103863 29 666 666 30.006785543656 30.006785543656 1 1258 1258 1258 1582564
109	103892 29 666 666 30.006785543656 30.006785543656 1 1258 1258 1258 1582564
110	103921 29 666 666 30.006785543656 30.006785543656 1 1230 1230 1230 1512900
111	103950 87 672 883 30.006785585611 35.000888127972 3 1258 1258 3774 4747692
112	104037 87 672 883 30.006785585611 35.000888127972 3 1258 1258 3774 4747692
113	104124 87 672 883 30.006785585611 35.000888127972 3 1258 1258 3774 4747692
114	104211 87 672 883 30.006785585611 35.000888127972 3 1258 1258 3774 4747692
115	104298 87 672 883 30.006785585611 35.000888127972 3 1230 1230 3690 4538700
116	104385 116 675 904 30.006785585611 35.000888293503 4 1208 1208 4832 5837056
117	104501 116 676 905 30.006785585611 35.000888293503 4 1200 1200 4800 5760000
118	104617 745 887 887 30.1 35 50 0 768000 768000 589824000000
119	105362 143 676 905 30.006785585611 35.000888293503 4 0 0.005845589419 0.011606985983 5.8708433719947e-05
120	105505 87 888 907 35.000888135021 35.000888298301 3 1200 1200 3600 4320000
121	105592 87 889 909 35.000888135021 35.000888298301 3 1208 1208 3624 4377792
122	105679 87 891 914 35.000888135021 35.000888298301 3 1228 1228 3684 4523952
123	105766 87 891 914 35.000888135021 35.000888298301 3 1228 1228 3684 4523952
124	105853 87 894 919 35.000888135021 35.000888298301 3 1230 1230 3690 4538700
125	105940 90 894 919 35.000888135021 35.000888298301 3 10064 10064 30192 303852288
126	106030 745 894 894 30.1 35 50 0 201280 201280 40513638400
127	106775 78 894 919 35.000888135021 35.000888298301 3 1 3 6 14
128	106853 90 894 919 35.000888135021 35.000888298301 3 10064 30192 60384 1417977344
129	106943 26 894 894 35.000888135021 35.000888135021 1 5 5 5 25
135	106969 52 657 658 30.006785408635 30.006785408635 2 0 1 1 1
136	107021 29 657 657 30.006785408635 30.006785408635 1 1258 1258 1258 1582564
137	107050 29 657 657 30.006785408635 30.006785408635 1 1258 1258 1258 1582564
138	107079 29 657 657 30.006785408635 30.006785408635 1 1258 1258 1258 1582564
139	107108 39 657 657 30.006785408635 30.006785408635 1 0.003817271828 0.003817271828 0.003817271828 1.4571564208842e-05
140	107147 29 897 897 35.000888293503 35.000888293503 1 1200 1200 1200 1440000
141	107176 29 898 898 35.000888293503 35.000888293503 1 1208 1208 1208 1459264
142	107205 29 900 900 35.000888293503 35.000888293503 1 1228 1228 1228 1507984
143	107234 29 900 900 35.000888293503 35.000888293503 1 1228 1228 1228 1507984
144	107263 29 903 903 35.000888293503 35.000888293503 1 1230 1230 1230 1512900
145	107292 30 903 903 35.000888293503 35.000888293503 1 10064 10064 10064 101284096
146	107322 2945 903 903 15.2 35 199 0 0 0 0
147	110267 26 903 903 35.000888293503 35.000888293503 1 1 1 1 1
148	110293 30 903 903 35.000888293503 35.000888293503 1 10064 10064 10064 101284096
149	110323 26 903 903 35.000888293503 35.000888293503 1 9 9 9 81
vector 150 Scenario.node[3].wlan[0].mac.dcf.channelAccess.pendingQueue outgoingDataRate:vector ETV
=======
vector 151 Scenario.node[3].wlan[0].mac.dcf.channelAccess.contention backoffPeriodGenerated:vector ETV
attr interpolationmode none
attr recordingmode vector
attr title "backoff periods"
vector 152 Scenario.node[3].wlan[0].mac.dcf.channelAccess.pendingQueue queueingTime:vector ETV
attr interpolationmode none
attr recordingmode vector
attr source queueingTime(packetPulled)
attr title "queueing times"
attr unit s
vector 153 Scenario.node[3].wlan[0].mac.dcf.channelAccess.pendingQueue outgoingPacketLengths:vector ETV
attr interpolationmode none
attr recordingmode vector
attr source packetLength(packetPulled)
attr title "outgoing packet lengths"
attr unit b
vector 154 Scenario.node[3].wlan[0].mac.dcf.channelAccess.pendingQueue outgoingDataRate:vector ETV
>>>>>>> cb40c32b5605b182eb28a7bfd6f1ddcc854b381a
attr interpolationmode linear
attr recordingmode vector
attr source throughput(packetPulled)
attr title "outgoing datarate"
attr unit bps
<<<<<<< HEAD
50	110586 39 928 928 35.000959063831 35.000959063831 1 41974265.631544 41974265.631544 41974265.631544 1.7618389753074e+15
56	110625 38 928 928 35.000959063831 35.000959063831 1 40039045.11753 40039045.11753 40039045.11753 1.6031251339236e+15
60	110663 39 928 928 35.000959063831 35.000959063831 1 31480699.223658 31480699.223658 31480699.223658 9.9103442361041e+14
75	110702 38 928 928 35.000959063831 35.000959063831 1 80078090.23506 80078090.23506 80078090.23506 6.4125005356944e+15
83	110740 39 928 928 35.000959063831 35.000959063831 1 73454964.855202 73454964.855202 73454964.855202 5.3956318618789e+15
94	110779 38 928 928 35.000959063831 35.000959063831 1 40039045.11753 40039045.11753 40039045.11753 1.6031251339236e+15
98	110817 720 928 928 30.1 35.000959063831 51 0 301920 301920 91155686400
118	111537 40 928 928 35.000959063831 35.000959063831 1 20019522.558765 20019522.558765 20019522.558765 4.007812834809e+14
126	111577 40 928 928 35.000959063831 35.000959063831 1 31480699.223658 31480699.223658 31480699.223658 9.9103442361041e+14
132	111617 771 928 928 30.1 35.000959063831 51 0 201280 201280 40513638400
146	112388 40 928 928 35.000959063831 35.000959063831 1 10493566.407886 10493566.407886 10493566.407886 1.1011493595671e+14
150	112428 2971 928 928 15.2 35.000959063831 200 0 0 0 0
=======
vector 155 Scenario.node[3].wlan[0].mac.dcf datarateSelected:vector ETV
attr interpolationmode none
attr recordingmode vector
attr title "datarates selected"
vector 156 Scenario.node[3].wlan[0].mac packetSentToLower:vector(packetBytes) ETV
attr interpolationmode none
attr recordingmode vector(packetBytes)
attr title "packets sent to lower layer, packetBytes"
vector 157 Scenario.node[3].wlan[0].radio transmissionState:vector ETV
attr interpolationmode sample-hold
attr recordingmode vector
attr source transmissionStateChanged
attr title "Radio transmission state"
vector 158 Scenario.node[3].wlan[0].mac.dcf packetSentToPeer:vector(packetBytes) ETV
attr interpolationmode none
attr recordingmode vector(packetBytes)
attr title "packets sent, packetBytes"
vector 159 Scenario.node[3].wlan[0].mac.dcf packetSentToPeerMulticast:vector(packetBytes) ETV
attr interpolationmode none
attr recordingmode vector(packetBytes)
attr source ieee80211Multicast(packetSentToPeer)
attr title "packets sent: multicast, packetBytes"
vector 160 Scenario.node[3].wlan[0].mac.dcf packetSentToPeerWithoutRetry:vector(packetBytes) ETV
attr interpolationmode none
attr recordingmode vector(packetBytes)
attr source ieee80211NotRetry(packetSentToPeer)
attr title "packets sent: without retry, packetBytes"
vector 161 Scenario.node[3].wlan[0].mac.dcf.channelAccess.inProgressFrames queueingTime:vector ETV
attr interpolationmode none
attr recordingmode vector
attr source queueingTime(packetDequeued)
attr title "queueing times"
138	39815 56 315 323 20.000754629678 20.000754629678 2 108 108 216 23328
143	39871 28 317 317 20.000754629678 20.000754629678 1 108 108 108 11664
36	39899 64 161 323 15.1 20.000754629678 3 0 2 3 5
37	39963 14 161 161 15.1 15.1 1 0 0 0 0
38	39977 14 161 161 15.1 15.1 1 0 0 0 0
144	39991 28 319 319 20.000754629678 20.000754629678 1 128 128 128 16384
145	40019 28 319 319 20.000754629678 20.000754629678 1 128 128 128 16384
154	40047 3734 328 559 15.2 40.3 252 0 12640 12640 159769600
153	43781 29 328 328 20.000916629678 20.000916629678 1 1264 1264 1264 1597696
152	43810 33 328 328 20.000916629678 20.000916629678 1 0.000162 0.000162 0.000162 2.6244e-08
148	43843 3734 322 559 15.2 40.3 252 0 12640 12640 159769600
147	47577 29 322 322 20.000754629678 20.000754629678 1 1264 1264 1264 1597696
149	47606 52 322 328 20.000754629678 20.000916629678 2 0 1 1 1
150	47658 55 322 328 20.000754629678 20.000916629678 2 0 1264 1264 1597696
161	47713 33 334 334 20.001068629678 20.001068629678 1 0.000152 0.000152 0.000152 2.3104e-08
34	47746 78 161 334 15.1 20.001068629678 4 0 1 1 1
35	47824 78 161 327 15.1 20.000916629678 4 0 1 1 1
151	47902 26 322 322 20.000754629678 20.000754629678 1 8 8 8 64
42	47928 328 161 335 15.1 20.001068629678 14 0 2 4 8
43	48256 15 161 161 15.1 15.1 1 15 15 15 225
155	48271 33 328 328 20.000916629678 20.000916629678 1 12000000 12000000 12000000 1.44e+14
33	48304 78 161 334 15.1 20.001068629678 4 0 1 1 1
136	48382 28 312 312 20.000754629678 20.000754629678 1 158 158 158 24964
135	48410 28 312 312 20.000754629678 20.000754629678 1 158 158 158 24964
134	48438 28 312 312 20.000754629678 20.000754629678 1 158 158 158 24964
160	48466 28 334 334 20.001068629678 20.001068629678 1 158 158 158 24964
159	48494 28 334 334 20.001068629678 20.001068629678 1 158 158 158 24964
158	48522 28 334 334 20.001068629678 20.001068629678 1 158 158 158 24964
133	48550 28 312 312 20.000754629678 20.000754629678 1 158 158 158 24964
156	48578 28 328 328 20.000916629678 20.000916629678 1 158 158 158 24964
146	48606 28 322 322 20.000754629678 20.000754629678 1 130 130 130 16900
137	48634 28 312 312 20.000754629678 20.000754629678 1 130 130 130 16900
40	48662 14 161 161 15.1 15.1 1 3 3 3 9
39	48676 92 161 335 15.1 20.001068629678 5 0 3 7 17
41	48768 114 161 335 15.1 20.001068629678 5 0 3 6 12
157	48882 104 329 335 20.000916629678 20.001068629678 4 0 2 4 6
141	48986 78 316 324 20.000754629678 20.000754629678 2 0.000754629678 0.000754629678 0.001509259356 1.1389319018368e-06
140	49064 3734 316 559 15.2 40.3 252 0 16000 16000 256000000
139	52798 56 316 324 20.000754629678 20.000754629678 2 100 100 200 20000
142	52854 28 316 316 20.000754629678 20.000754629678 1 100 100 100 10000
73	52882 54 247 255 20.000152182948 20.000152182948 2 108 108 216 23328
78	52936 27 249 249 20.000152182948 20.000152182948 1 108 108 108 11664
14	52963 62 55 255 5.1 20.000152182948 3 0 2 3 5
15	53025 12 55 55 5.1 5.1 1 0 0 0 0
16	53037 12 55 55 5.1 5.1 1 0 0 0 0
79	53049 27 251 251 20.000152182948 20.000152182948 1 128 128 128 16384
80	53076 27 251 251 20.000152182948 20.000152182948 1 128 128 128 16384
89	53103 5408 260 602 5.2 44.6 395 0 12640 12640 159769600
88	58511 28 260 260 20.000288182948 20.000288182948 1 1264 1264 1264 1597696
87	58539 32 260 260 20.000288182948 20.000288182948 1 0.000136 0.000136 0.000136 1.8496e-08
83	58571 5408 254 602 5.2 44.6 395 0 12640 12640 159769600
82	63979 28 254 254 20.000152182948 20.000152182948 1 1264 1264 1264 1597696
84	64007 50 254 260 20.000152182948 20.000288182948 2 0 1 1 1
85	64057 53 254 260 20.000152182948 20.000288182948 2 0 1264 1264 1597696
96	64110 32 266 266 20.000440182948 20.000440182948 1 0.000152 0.000152 0.000152 2.3104e-08
12	64142 74 55 266 5.1 20.000440182948 4 0 1 1 1
13	64216 74 55 259 5.1 20.000288182948 4 0 1 1 1
86	64290 25 254 254 20.000152182948 20.000152182948 1 6 6 6 36
20	64315 474 55 325 5.1 20.000754641204 20 0 2 4 8
21	64789 13 55 55 5.1 5.1 1 15 15 15 225
90	64802 32 260 260 20.000288182948 20.000288182948 1 12000000 12000000 12000000 1.44e+14
11	64834 74 55 266 5.1 20.000440182948 4 0 1 1 1
71	64908 27 244 244 20.000152182948 20.000152182948 1 158 158 158 24964
70	64935 27 244 244 20.000152182948 20.000152182948 1 158 158 158 24964
69	64962 27 244 244 20.000152182948 20.000152182948 1 158 158 158 24964
95	64989 27 266 266 20.000440182948 20.000440182948 1 158 158 158 24964
94	65016 27 266 266 20.000440182948 20.000440182948 1 158 158 158 24964
93	65043 27 266 266 20.000440182948 20.000440182948 1 158 158 158 24964
68	65070 54 244 306 20.000152182948 20.000663548844 2 158 158 316 49928
91	65124 27 260 260 20.000288182948 20.000288182948 1 158 158 158 24964
81	65151 27 254 254 20.000152182948 20.000152182948 1 130 130 130 16900
72	65178 27 244 244 20.000152182948 20.000152182948 1 130 130 130 16900
128	65205 28 306 306 20.000663548844 20.000663548844 1 158 158 158 24964
127	65233 28 306 306 20.000663548844 20.000663548844 1 158 158 158 24964
18	65261 12 55 55 5.1 5.1 1 3 3 3 9
17	65273 86 55 267 5.1 20.000440182948 5 0 3 7 17
19	65359 187 55 325 5.1 20.000754641204 8 0 3 12 26
92	65546 100 261 267 20.000288182948 20.000440182948 4 0 2 4 6
76	65646 76 248 256 20.000152182948 20.000152182948 2 0.000152182948 0.000152182948 0.000304365896 4.6319299323941e-08
75	65722 5408 248 602 5.2 44.6 395 0 16000 16000 256000000
74	71130 54 248 256 20.000152182948 20.000152182948 2 100 100 200 20000
77	71184 27 248 248 20.000152182948 20.000152182948 1 100 100 100 10000
107	71211 83 278 340 20.000440412076 20.00106884728 3 108 108 324 34992
112	71294 28 280 280 20.000440412076 20.000440412076 1 108 108 108 11664
25	71322 88 108 340 10.1 20.00106884728 4 0 3 6 14
26	71410 14 108 108 10.1 10.1 1 0 0 0 0
27	71424 14 108 108 10.1 10.1 1 0 0 0 0
113	71438 28 282 282 20.000440412076 20.000440412076 1 128 128 128 16384
114	71466 28 282 282 20.000440412076 20.000440412076 1 128 128 128 16384
123	71494 5821 297 650 10.2 49.4 393 0 12640 12640 159769600
122	77315 29 297 297 20.000602412076 20.000602412076 1 1264 1264 1264 1597696
121	77344 33 297 297 20.000602412076 20.000602412076 1 0.000162 0.000162 0.000162 2.6244e-08
117	77377 5821 285 650 10.2 49.4 393 0 12640 12640 159769600
116	83198 29 285 285 20.000440412076 20.000440412076 1 1264 1264 1264 1597696
118	83227 52 285 297 20.000440412076 20.000602412076 2 0 1 1 1
119	83279 55 285 297 20.000440412076 20.000602412076 2 0 1264 1264 1597696
132	83334 33 309 309 20.000754412076 20.000754412076 1 0.000152 0.000152 0.000152 2.3104e-08
23	83367 78 108 309 10.1 20.000754412076 4 0 1 1 1
24	83445 78 108 296 10.1 20.000602412076 4 0 1 1 1
120	83523 26 285 285 20.000440412076 20.000440412076 1 8 8 8 64
31	83549 424 108 336 10.1 20.00106884728 18 0 2 4 8
32	83973 15 108 108 10.1 10.1 1 15 15 15 225
124	83988 33 297 297 20.000602412076 20.000602412076 1 12000000 12000000 12000000 1.44e+14
22	84021 78 108 309 10.1 20.000754412076 4 0 1 1 1
105	84099 55 275 337 20.000440412076 20.00106884728 2 158 158 316 49928
104	84154 55 275 337 20.000440412076 20.00106884728 2 158 158 316 49928
103	84209 55 275 337 20.000440412076 20.00106884728 2 158 158 316 49928
131	84264 28 309 309 20.000754412076 20.000754412076 1 158 158 158 24964
130	84292 28 309 309 20.000754412076 20.000754412076 1 158 158 158 24964
129	84320 28 309 309 20.000754412076 20.000754412076 1 158 158 158 24964
102	84348 55 275 337 20.000440412076 20.00106884728 2 158 158 316 49928
125	84403 28 297 297 20.000602412076 20.000602412076 1 158 158 158 24964
115	84431 28 285 285 20.000440412076 20.000440412076 1 130 130 130 16900
106	84459 55 275 337 20.000440412076 20.00106884728 2 130 130 260 33800
29	84514 14 108 108 10.1 10.1 1 3 3 3 9
28	84528 92 108 310 10.1 20.000754412076 5 0 3 7 17
30	84620 162 108 336 10.1 20.00106884728 7 0 3 10 22
126	84782 104 298 310 20.000602412076 20.000754412076 4 0 2 4 6
110	84886 115 279 341 20.000440412076 20.00106884728 3 0.000440412076 0.00106884728 0.001949671432 1.5303601013367e-06
109	85001 5821 279 650 10.2 49.4 393 0 24000 24000 576000000
108	90822 83 279 341 20.000440412076 20.00106884728 3 100 100 300 30000
111	90905 28 279 279 20.000440412076 20.000440412076 1 100 100 100 10000
54	90933 55 224 272 20 20.000440365896 3 108 108 324 34992
45	90988 28 218 226 20 20 2 108 108 216 23328
3	91016 56 2 272 0.1 20.000440365896 4 0 3 6 14
4	91072 10 2 2 0.1 0.1 1 0 0 0 0
5	91082 10 2 2 0.1 0.1 1 0 0 0 0
46	91092 28 220 228 20 20 2 128 128 256 32768
47	91120 28 220 228 20 20 2 128 128 256 32768
60	91148 7786 235 730 0.2 57.2 571 0 25280 25280 639078400
59	98934 30 235 235 20 20 2 1264 1264 2528 3195392
58	98964 24 235 235 20 20 2 0 0 0 0
50	98988 7786 223 730 0.2 57.2 571 0 25280 25280 639078400
49	106774 30 223 231 20 20 2 1264 1264 2528 3195392
51	106804 48 223 235 20 20 4 0 2 4 6
52	106852 57 223 235 20 20 4 0 2528 5056 9586176
67	106909 64 241 303 20.000152 20.000663365896 2 0.000152 0.000663365896 0.000815365896 4.6315831197588e-07
1	106973 84 2 303 0.1 20.000663365896 6 0 2 4 6
2	107057 132 2 289 0.1 20.000511365896 8 0 1 3 3
53	107189 31 223 241 20 20.000152 2 4 7 11 65
9	107220 398 2 304 0.1 20.000663365896 22 0 2 16 28
10	107618 12 2 2 0.1 0.1 1 15 15 15 225
61	107630 51 235 290 20 20.000511365896 2 12000000 12000000 24000000 2.88e+14
0	107681 97 2 303 0.1 20.000663365896 6 0 1 2 2
100	107778 28 269 269 20.000440365896 20.000440365896 1 158 158 158 24964
99	107806 27 269 269 20.000440365896 20.000440365896 1 158 158 158 24964
98	107833 27 269 269 20.000440365896 20.000440365896 1 158 158 158 24964
66	107860 48 241 303 20.000152 20.000663365896 2 158 158 316 49928
65	107908 48 241 303 20.000152 20.000663365896 2 158 158 316 49928
64	107956 48 241 303 20.000152 20.000663365896 2 158 158 316 49928
97	108004 27 269 269 20.000440365896 20.000440365896 1 158 158 158 24964
62	108031 41 235 290 20 20.000511365896 2 158 158 316 49928
48	108072 28 223 231 20 20 2 130 130 260 33800
101	108100 28 269 269 20.000440365896 20.000440365896 1 130 130 130 16900
7	108128 10 2 2 0.1 0.1 1 3 3 3 9
6	108138 107 2 304 0.1 20.000663365896 7 0 3 12 30
8	108245 135 2 304 0.1 20.000663365896 7 0 3 7 13
63	108380 162 236 304 20 20.000663365896 8 0 2 8 12
57	108542 62 225 273 20 20.000440365896 3 0 0.000440365896 0.000440365896 1.9392212235988e-07
56	108604 7786 225 730 0.2 57.2 571 0 24000 24000 576000000
55	116390 55 225 273 20 20.000440365896 3 100 100 300 30000
44	116445 28 213 225 20 20 2 100 100 200 20000
>>>>>>> cb40c32b5605b182eb28a7bfd6f1ddcc854b381a

