version 3
run General-0-20240510-09:03:15-20042
attr configname General
attr datetime 20240510-09:03:15
attr datetimef 20240510-090315
attr experiment General
attr inifile omnetpp.ini
attr iterationvars ""
attr iterationvarsd ""
attr iterationvarsf ""
attr measurement ""
attr network Scenario
attr processid 20042
attr repetition 0
attr replication #0
attr resultdir results
attr runnumber 0
attr seedset 0
config image-path ../../images:../../../inet4.4/images:../../../veins-veins-5.2/images
config network Scenario
config sim-time-limit 60s
config debug-on-errors true
config cmdenv-express-mode true
config image-path ../../../../images
config *.node[*].numApps 1
config *.node[*].app[0].typename org.car2x.veins.subprojects.veins_inet.VeinsInetSampleApplication
config *.node[*].app[0].interface "\"wlan0\""
config *.node[*].wlan[0].opMode "\"p\""
config *.node[*].wlan[0].radio.typename Ieee80211DimensionalRadio
config *.node[*].wlan[0].radio.bandName "\"5.9 GHz\""
config *.node[*].wlan[0].radio.channelNumber 3
config *.node[*].wlan[0].radio.transmitter.power 20mW
config *.node[*].wlan[0].radio.bandwidth "10 MHz"
config *.node[*].wlan[*].radio.antenna.mobility.typename AttachedMobility
config *.node[*].wlan[*].radio.antenna.mobility.mobilityModule "\"^.^.^.^.mobility\""
config *.node[*].wlan[*].radio.antenna.mobility.offsetX -2.5m
config *.node[*].wlan[*].radio.antenna.mobility.offsetZ 1.5m
config *.node[*].wlan[*].radio.antenna.mobility.constraintAreaMinX 0m
config *.node[*].wlan[*].radio.antenna.mobility.constraintAreaMaxX 0m
config *.node[*].wlan[*].radio.antenna.mobility.constraintAreaMinY 0m
config *.node[*].wlan[*].radio.antenna.mobility.constraintAreaMaxY 0m
config *.node[*].wlan[*].radio.antenna.mobility.constraintAreaMinZ 0m
config *.node[*].wlan[*].radio.antenna.mobility.constraintAreaMaxZ 0m
config *.node[*].ipv4.configurator.typename HostAutoConfigurator
config *.node[*].ipv4.configurator.interfaces "\"wlan0\""
config *.node[*].ipv4.configurator.mcastGroups "\"224.0.0.1\""
config *.node[*].mobility.typename VeinsInetMobility
config *.manager.updateInterval 0.1s
config *.manager.host "\"localhost\""
config *.manager.port 9999
config *.manager.autoShutdown true
config *.manager.launchConfig "xmldoc(\"square.launchd.xml\")"
config *.manager.moduleType "\"org.car2x.veins.subprojects.veins_inet.VeinsInetCar\""
config *.physicalEnvironment.config "xmldoc(\"obstacles.xml\")"
config *.radioMedium.obstacleLoss.typename IdealObstacleLoss
config **.vector-recording true

par Scenario.radioMedium.propagation typename "\"inet.physicallayer.wireless.common.propagation.ConstantSpeedPropagation\""
par Scenario.radioMedium.propagation propagationSpeed 2.99792e+08mps
attr unit mps
par Scenario.radioMedium.propagation ignoreMovementDuringTransmission true
par Scenario.radioMedium.propagation ignoreMovementDuringPropagation true
par Scenario.radioMedium.propagation ignoreMovementDuringReception true
scalar Scenario.radioMedium.propagation "Arrival computation count" 39
par Scenario.radioMedium.analogModel typename "\"inet.physicallayer.wireless.common.analogmodel.packetlevel.DimensionalAnalogModel\""
par Scenario.radioMedium.analogModel attenuateWithCenterFrequency true
par Scenario.radioMedium.backgroundNoise typename "\"inet.physicallayer.wireless.common.backgroundnoise.IsotropicDimensionalBackgroundNoise\""
par Scenario.radioMedium.backgroundNoise powerSpectralDensity "nan dBmWpMHz"
attr unit dBmWpMHz
par Scenario.radioMedium.backgroundNoise power -110dBm
attr unit dBm
par Scenario.radioMedium.backgroundNoise bandwidth "nan Hz"
attr unit Hz
par Scenario.radioMedium.pathLoss typename "\"inet.physicallayer.wireless.common.pathloss.FreeSpacePathLoss\""
par Scenario.radioMedium.pathLoss alpha 2
par Scenario.radioMedium.pathLoss systemLoss 0dB
attr unit dB
par Scenario.radioMedium.obstacleLoss typename "\"inet.physicallayer.wireless.common.obstacleloss.IdealObstacleLoss\""
par Scenario.radioMedium.obstacleLoss physicalEnvironmentModule "\"physicalEnvironment\""
par Scenario.radioMedium.mediumLimitCache typename "\"inet.physicallayer.wireless.common.medium.MediumLimitCache\""
par Scenario.radioMedium.mediumLimitCache centerFrequency 2.4e+09Hz
attr unit Hz
par Scenario.radioMedium.mediumLimitCache maxSpeed "nan mps"
attr unit mps
par Scenario.radioMedium.mediumLimitCache maxTransmissionPower "nan W"
attr unit W
par Scenario.radioMedium.mediumLimitCache minInterferencePower -110dBm
attr unit dBm
par Scenario.radioMedium.mediumLimitCache minReceptionPower -85dBm
attr unit dBm
par Scenario.radioMedium.mediumLimitCache maxAntennaGain 0dB
attr unit dB
par Scenario.radioMedium.mediumLimitCache minInterferenceTime 1e-12s
attr unit s
par Scenario.radioMedium.mediumLimitCache maxTransmissionDuration 0.01s
attr unit s
par Scenario.radioMedium.mediumLimitCache maxCommunicationRange "nan m"
attr unit m
par Scenario.radioMedium.mediumLimitCache maxInterferenceRange "nan m"
attr unit m
par Scenario.radioMedium.communicationCache typename "\"inet.physicallayer.wireless.common.communicationcache.VectorCommunicationCache\""
par Scenario.radioMedium typename "\"inet.physicallayer.wireless.ieee80211.packetlevel.Ieee80211DimensionalRadioMedium\""
par Scenario.radioMedium physicalEnvironmentModule "\"physicalEnvironment\""
par Scenario.radioMedium signalAnalogRepresentation "\"scalar\""
attr enum unitDisk,scalar,dimensional
par Scenario.radioMedium rangeFilter "\"\""
par Scenario.radioMedium radioModeFilter false
par Scenario.radioMedium listeningFilter false
par Scenario.radioMedium macAddressFilter false
par Scenario.radioMedium recordTransmissionLog false
par Scenario.radioMedium recordReceptionLog false
scalar Scenario.radioMedium "transmission count" 13
scalar Scenario.radioMedium "signal send count" 39
scalar Scenario.radioMedium "reception computation count" 37
scalar Scenario.radioMedium "interference computation count" 129
scalar Scenario.radioMedium "reception decision computation count" 32
scalar Scenario.radioMedium "listening decision computation count" 60
scalar Scenario.radioMedium "reception cache hit" 84.77366255144
attr unit %
scalar Scenario.radioMedium "interference cache hit" 66.666666666667
attr unit %
scalar Scenario.radioMedium "noise cache hit" 0
attr unit %
scalar Scenario.radioMedium "snir cache hit" 50
attr unit %
scalar Scenario.radioMedium "reception decision cache hit" 50
attr unit %
scalar Scenario.radioMedium "reception result cache hit" 0
attr unit %
par Scenario.manager typename "\"org.car2x.veins.subprojects.veins_inet.VeinsInetManager\""
par Scenario.manager connectAt 0s
attr unit s
par Scenario.manager firstStepAt -1s
attr unit s
par Scenario.manager updateInterval 0.1s
attr unit s
par Scenario.manager moduleType "\"org.car2x.veins.subprojects.veins_inet.VeinsInetCar\""
par Scenario.manager moduleName "\"node\""
par Scenario.manager moduleDisplayString "\"*='i=veins/node/car;is=vs'\""
par Scenario.manager trafficLightModuleType "\"\""
par Scenario.manager trafficLightModuleName "\"tls\""
par Scenario.manager trafficLightFilter "\"\""
par Scenario.manager trafficLightModuleDisplayString "\"i=misc/node2;is=vs;r=0,,#707070,1\""
par Scenario.manager host "\"localhost\""
par Scenario.manager port 9999
par Scenario.manager seed -1
par Scenario.manager autoShutdown true
par Scenario.manager margin 25
par Scenario.manager roiRoads "\"\""
par Scenario.manager roiRects "\"\""
par Scenario.manager penetrationRate 1
par Scenario.manager ignoreGuiCommands false
par Scenario.manager launchConfig "<launch>...</launch> at /home/simu5g/simu5g-workspace/veins_inet/examples/veins_inet//square.launchd.xml:34"
scalar Scenario.manager roiArea 0
par Scenario.visualizer.canvasVisualizer.sceneVisualizer typename "\"inet.visualizer.canvas.scene.SceneCanvasVisualizer\""
par Scenario.visualizer.canvasVisualizer.sceneVisualizer visualizationTargetModule "\"^.^.^\""
par Scenario.visualizer.canvasVisualizer.sceneVisualizer visualizationSubjectModule "\"^.^.^\""
par Scenario.visualizer.canvasVisualizer.sceneVisualizer tags "\"\""
par Scenario.visualizer.canvasVisualizer.sceneVisualizer physicalEnvironmentModule "\"physicalEnvironment\""
par Scenario.visualizer.canvasVisualizer.sceneVisualizer networkNodeVisualizerModule "\"^.networkNodeVisualizer\""
par Scenario.visualizer.canvasVisualizer.sceneVisualizer axisLength "nan m"
attr mutable ""
attr unit m
par Scenario.visualizer.canvasVisualizer.sceneVisualizer animationSpeed 0
par Scenario.visualizer.canvasVisualizer.sceneVisualizer sceneMinX "nan m"
attr unit m
par Scenario.visualizer.canvasVisualizer.sceneVisualizer sceneMinY "nan m"
attr unit m
par Scenario.visualizer.canvasVisualizer.sceneVisualizer sceneMinZ "nan m"
attr unit m
par Scenario.visualizer.canvasVisualizer.sceneVisualizer sceneMaxX "nan m"
attr unit m
par Scenario.visualizer.canvasVisualizer.sceneVisualizer sceneMaxY "nan m"
attr unit m
par Scenario.visualizer.canvasVisualizer.sceneVisualizer sceneMaxZ "nan m"
attr unit m
par Scenario.visualizer.canvasVisualizer.sceneVisualizer zIndex 0
par Scenario.visualizer.canvasVisualizer.sceneVisualizer viewAngle "\"x right y down z out\""
attr mutable ""
par Scenario.visualizer.canvasVisualizer.sceneVisualizer viewScale "\"1 1\""
attr mutable ""
par Scenario.visualizer.canvasVisualizer.sceneVisualizer viewTranslation "\"0 0\""
attr mutable ""
par Scenario.visualizer.canvasVisualizer.sceneVisualizer descriptionFigure "\"\""
par Scenario.visualizer.canvasVisualizer.physicalEnvironmentVisualizer typename "\"inet.visualizer.canvas.environment.PhysicalEnvironmentCanvasVisualizer\""
par Scenario.visualizer.canvasVisualizer.physicalEnvironmentVisualizer visualizationTargetModule "\"^.^.^\""
par Scenario.visualizer.canvasVisualizer.physicalEnvironmentVisualizer visualizationSubjectModule "\"^.^.^\""
par Scenario.visualizer.canvasVisualizer.physicalEnvironmentVisualizer tags "\"\""
par Scenario.visualizer.canvasVisualizer.physicalEnvironmentVisualizer physicalEnvironmentModule "\"physicalEnvironment\""
par Scenario.visualizer.canvasVisualizer.physicalEnvironmentVisualizer displayObjects true
par Scenario.visualizer.canvasVisualizer.physicalEnvironmentVisualizer zIndex 0
par Scenario.visualizer.canvasVisualizer.networkNodeVisualizer typename "\"inet.visualizer.canvas.scene.NetworkNodeCanvasVisualizer\""
par Scenario.visualizer.canvasVisualizer.networkNodeVisualizer visualizationTargetModule "\"^.^.^\""
par Scenario.visualizer.canvasVisualizer.networkNodeVisualizer visualizationSubjectModule "\"^.^.^\""
par Scenario.visualizer.canvasVisualizer.networkNodeVisualizer tags "\"\""
par Scenario.visualizer.canvasVisualizer.networkNodeVisualizer nodeFilter "\"*\""
attr mutable ""
par Scenario.visualizer.canvasVisualizer.networkNodeVisualizer annotationSpacing 4
par Scenario.visualizer.canvasVisualizer.networkNodeVisualizer placementPenalty 10
par Scenario.visualizer.canvasVisualizer.networkNodeVisualizer zIndex 0
par Scenario.visualizer.canvasVisualizer.networkConnectionVisualizer typename "\"inet.visualizer.canvas.scene.NetworkConnectionCanvasVisualizer\""
par Scenario.visualizer.canvasVisualizer.networkConnectionVisualizer visualizationTargetModule "\"^.^.^\""
par Scenario.visualizer.canvasVisualizer.networkConnectionVisualizer visualizationSubjectModule "\"^.^.^\""
par Scenario.visualizer.canvasVisualizer.networkConnectionVisualizer tags "\"\""
par Scenario.visualizer.canvasVisualizer.networkConnectionVisualizer displayNetworkConnections true
par Scenario.visualizer.canvasVisualizer.networkConnectionVisualizer nodeFilter "\"\""
attr mutable ""
par Scenario.visualizer.canvasVisualizer.networkConnectionVisualizer lineColor "\"black\""
par Scenario.visualizer.canvasVisualizer.networkConnectionVisualizer lineStyle "\"solid\""
par Scenario.visualizer.canvasVisualizer.networkConnectionVisualizer lineWidth 1
par Scenario.visualizer.canvasVisualizer.networkConnectionVisualizer zIndex 0
par Scenario.visualizer.canvasVisualizer.mobilityVisualizer typename "\"inet.visualizer.canvas.mobility.MobilityCanvasVisualizer\""
par Scenario.visualizer.canvasVisualizer.mobilityVisualizer visualizationTargetModule "\"^.^.^\""
par Scenario.visualizer.canvasVisualizer.mobilityVisualizer visualizationSubjectModule "\"^.^.^\""
par Scenario.visualizer.canvasVisualizer.mobilityVisualizer tags "\"\""
par Scenario.visualizer.canvasVisualizer.mobilityVisualizer networkNodeVisualizerModule "\"^.networkNodeVisualizer\""
par Scenario.visualizer.canvasVisualizer.mobilityVisualizer displayMobility true
par Scenario.visualizer.canvasVisualizer.mobilityVisualizer animationSpeed 0
par Scenario.visualizer.canvasVisualizer.mobilityVisualizer moduleFilter "\"**.mobility\""
attr mutable ""
par Scenario.visualizer.canvasVisualizer.mobilityVisualizer displayPositions false
par Scenario.visualizer.canvasVisualizer.mobilityVisualizer positionCircleRadius 4
par Scenario.visualizer.canvasVisualizer.mobilityVisualizer positionCircleLineWidth 1
par Scenario.visualizer.canvasVisualizer.mobilityVisualizer positionCircleLineColor "\"dark\""
attr enum light,dark
par Scenario.visualizer.canvasVisualizer.mobilityVisualizer positionCircleFillColor "\"dark\""
attr enum light,dark
par Scenario.visualizer.canvasVisualizer.mobilityVisualizer displayOrientations false
par Scenario.visualizer.canvasVisualizer.mobilityVisualizer orientationPieRadius 32
par Scenario.visualizer.canvasVisualizer.mobilityVisualizer orientationPieSize 0.2
par Scenario.visualizer.canvasVisualizer.mobilityVisualizer orientationPieOpacity 0.25
par Scenario.visualizer.canvasVisualizer.mobilityVisualizer orientationLineColor "\"black\""
par Scenario.visualizer.canvasVisualizer.mobilityVisualizer orientationLineStyle "\"solid\""
par Scenario.visualizer.canvasVisualizer.mobilityVisualizer orientationLineWidth 1
par Scenario.visualizer.canvasVisualizer.mobilityVisualizer orientationFillColor "\"blue\""
par Scenario.visualizer.canvasVisualizer.mobilityVisualizer displayVelocities false
par Scenario.visualizer.canvasVisualizer.mobilityVisualizer velocityArrowScale 1
par Scenario.visualizer.canvasVisualizer.mobilityVisualizer velocityLineColor "\"black\""
par Scenario.visualizer.canvasVisualizer.mobilityVisualizer velocityLineStyle "\"solid\""
par Scenario.visualizer.canvasVisualizer.mobilityVisualizer velocityLineWidth 1
par Scenario.visualizer.canvasVisualizer.mobilityVisualizer displayMovementTrails false
par Scenario.visualizer.canvasVisualizer.mobilityVisualizer movementTrailLineColor "\"dark\""
attr enum light,dark
par Scenario.visualizer.canvasVisualizer.mobilityVisualizer movementTrailLineStyle "\"solid\""
par Scenario.visualizer.canvasVisualizer.mobilityVisualizer movementTrailLineWidth 1
par Scenario.visualizer.canvasVisualizer.mobilityVisualizer trailLength 100
par Scenario.visualizer.canvasVisualizer.mobilityVisualizer zIndex 0
par Scenario.visualizer.canvasVisualizer.statisticVisualizer typename "\"inet.visualizer.canvas.common.StatisticCanvasVisualizer\""
par Scenario.visualizer.canvasVisualizer.statisticVisualizer visualizationTargetModule "\"^.^.^\""
par Scenario.visualizer.canvasVisualizer.statisticVisualizer visualizationSubjectModule "\"^.^.^\""
par Scenario.visualizer.canvasVisualizer.statisticVisualizer tags "\"\""
par Scenario.visualizer.canvasVisualizer.statisticVisualizer networkNodeVisualizerModule "\"^.networkNodeVisualizer\""
par Scenario.visualizer.canvasVisualizer.statisticVisualizer displayStatistics true
par Scenario.visualizer.canvasVisualizer.statisticVisualizer signalName "\"\""
par Scenario.visualizer.canvasVisualizer.statisticVisualizer statisticName "\"\""
par Scenario.visualizer.canvasVisualizer.statisticVisualizer statisticUnit "\"\""
par Scenario.visualizer.canvasVisualizer.statisticVisualizer statisticExpression "\"\""
par Scenario.visualizer.canvasVisualizer.statisticVisualizer sourceFilter "\"**\""
attr mutable ""
par Scenario.visualizer.canvasVisualizer.statisticVisualizer format "\"%n: %v %u\""
attr mutable ""
par Scenario.visualizer.canvasVisualizer.statisticVisualizer unit "\"\""
par Scenario.visualizer.canvasVisualizer.statisticVisualizer font "\"<default>\""
par Scenario.visualizer.canvasVisualizer.statisticVisualizer textColor "\"black\""
par Scenario.visualizer.canvasVisualizer.statisticVisualizer backgroundColor "\"white\""
par Scenario.visualizer.canvasVisualizer.statisticVisualizer opacity 1
par Scenario.visualizer.canvasVisualizer.statisticVisualizer placementHint "\"top\""
par Scenario.visualizer.canvasVisualizer.statisticVisualizer placementPriority 0
par Scenario.visualizer.canvasVisualizer.statisticVisualizer zIndex 10
par Scenario.visualizer.canvasVisualizer.statisticVisualizer propertyName "\"\""
par Scenario.visualizer.canvasVisualizer.statisticVisualizer propertyIndex "\"\""
par Scenario.visualizer.canvasVisualizer.infoVisualizer typename "\"inet.visualizer.canvas.common.InfoCanvasVisualizer\""
par Scenario.visualizer.canvasVisualizer.infoVisualizer visualizationTargetModule "\"^.^.^\""
par Scenario.visualizer.canvasVisualizer.infoVisualizer visualizationSubjectModule "\"^.^.^\""
par Scenario.visualizer.canvasVisualizer.infoVisualizer tags "\"\""
par Scenario.visualizer.canvasVisualizer.infoVisualizer networkNodeVisualizerModule "\"^.networkNodeVisualizer\""
par Scenario.visualizer.canvasVisualizer.infoVisualizer displayInfos true
par Scenario.visualizer.canvasVisualizer.infoVisualizer modules "\"\""
attr mutable ""
par Scenario.visualizer.canvasVisualizer.infoVisualizer format "\"%t\""
attr mutable ""
par Scenario.visualizer.canvasVisualizer.infoVisualizer font "\"<default>\""
par Scenario.visualizer.canvasVisualizer.infoVisualizer textColor "\"black\""
par Scenario.visualizer.canvasVisualizer.infoVisualizer backgroundColor "\"white\""
par Scenario.visualizer.canvasVisualizer.infoVisualizer opacity 1
par Scenario.visualizer.canvasVisualizer.infoVisualizer placementHint "\"top\""
par Scenario.visualizer.canvasVisualizer.infoVisualizer placementPriority 0
par Scenario.visualizer.canvasVisualizer.infoVisualizer zIndex 10
par Scenario.visualizer.canvasVisualizer.energyStorageVisualizer typename "\"inet.visualizer.canvas.power.EnergyStorageCanvasVisualizer\""
par Scenario.visualizer.canvasVisualizer.energyStorageVisualizer visualizationTargetModule "\"^.^.^\""
par Scenario.visualizer.canvasVisualizer.energyStorageVisualizer visualizationSubjectModule "\"^.^.^\""
par Scenario.visualizer.canvasVisualizer.energyStorageVisualizer tags "\"\""
par Scenario.visualizer.canvasVisualizer.energyStorageVisualizer networkNodeVisualizerModule "\"^.networkNodeVisualizer\""
par Scenario.visualizer.canvasVisualizer.energyStorageVisualizer displayEnergyStorages false
par Scenario.visualizer.canvasVisualizer.energyStorageVisualizer energyStorageFilter "\"**\""
par Scenario.visualizer.canvasVisualizer.energyStorageVisualizer color "\"green\""
par Scenario.visualizer.canvasVisualizer.energyStorageVisualizer width 8
par Scenario.visualizer.canvasVisualizer.energyStorageVisualizer height 24
par Scenario.visualizer.canvasVisualizer.energyStorageVisualizer spacing 2
par Scenario.visualizer.canvasVisualizer.energyStorageVisualizer placementHint "\"right\""
par Scenario.visualizer.canvasVisualizer.energyStorageVisualizer placementPriority 0
par Scenario.visualizer.canvasVisualizer.energyStorageVisualizer zIndex 10
par Scenario.visualizer.canvasVisualizer.mediumVisualizer typename "\"inet.visualizer.canvas.physicallayer.MediumCanvasVisualizer\""
par Scenario.visualizer.canvasVisualizer.mediumVisualizer visualizationTargetModule "\"^.^.^\""
par Scenario.visualizer.canvasVisualizer.mediumVisualizer visualizationSubjectModule "\"^.^.^\""
par Scenario.visualizer.canvasVisualizer.mediumVisualizer tags "\"\""
par Scenario.visualizer.canvasVisualizer.mediumVisualizer mediumModule "\"radioMedium\""
par Scenario.visualizer.canvasVisualizer.mediumVisualizer networkNodeVisualizerModule "\"^.networkNodeVisualizer\""
par Scenario.visualizer.canvasVisualizer.mediumVisualizer nodeFilter "\"*\""
attr mutable ""
par Scenario.visualizer.canvasVisualizer.mediumVisualizer interfaceFilter "\"*\""
attr mutable ""
par Scenario.visualizer.canvasVisualizer.mediumVisualizer packetFilter "(omnetpp::cValueHolder)holder: \"*\""
attr mutable ""
par Scenario.visualizer.canvasVisualizer.mediumVisualizer displaySignals false
par Scenario.visualizer.canvasVisualizer.mediumVisualizer signalColor "\"dark\""
attr enum light,dark
par Scenario.visualizer.canvasVisualizer.mediumVisualizer signalPropagationAnimationSpeed "nan "
attr mutable ""
par Scenario.visualizer.canvasVisualizer.mediumVisualizer signalPropagationAnimationTime 1s
attr unit s
par Scenario.visualizer.canvasVisualizer.mediumVisualizer signalPropagationAdditionalTime 0s
attr unit s
par Scenario.visualizer.canvasVisualizer.mediumVisualizer signalTransmissionAnimationSpeed "nan "
attr mutable ""
par Scenario.visualizer.canvasVisualizer.mediumVisualizer signalTransmissionAnimationTime 1s
attr unit s
par Scenario.visualizer.canvasVisualizer.mediumVisualizer signalAnimationSpeedChangeTimeMode "\"realTime\""
attr enum realTime,animationTime,simulationTime
par Scenario.visualizer.canvasVisualizer.mediumVisualizer signalAnimationSpeedChangeTime 1s
attr unit s
par Scenario.visualizer.canvasVisualizer.mediumVisualizer displaySignalDepartures false
par Scenario.visualizer.canvasVisualizer.mediumVisualizer signalDepartureImage "\"misc/signal_departure.png\""
par Scenario.visualizer.canvasVisualizer.mediumVisualizer signalDeparturePlacementHint "\"topCenter\""
par Scenario.visualizer.canvasVisualizer.mediumVisualizer signalDeparturePlacementPriority 1
par Scenario.visualizer.canvasVisualizer.mediumVisualizer displaySignalArrivals false
par Scenario.visualizer.canvasVisualizer.mediumVisualizer signalArrivalImage "\"misc/signal_arrival.png\""
par Scenario.visualizer.canvasVisualizer.mediumVisualizer signalArrivalPlacementHint "\"topCenter\""
par Scenario.visualizer.canvasVisualizer.mediumVisualizer signalArrivalPlacementPriority -1
par Scenario.visualizer.canvasVisualizer.mediumVisualizer displayCommunicationRanges false
par Scenario.visualizer.canvasVisualizer.mediumVisualizer communicationRangeLineColor "\"blue\""
par Scenario.visualizer.canvasVisualizer.mediumVisualizer communicationRangeLineStyle "\"solid\""
par Scenario.visualizer.canvasVisualizer.mediumVisualizer communicationRangeLineWidth 1
par Scenario.visualizer.canvasVisualizer.mediumVisualizer displayInterferenceRanges false
par Scenario.visualizer.canvasVisualizer.mediumVisualizer interferenceRangeLineColor "\"gray\""
par Scenario.visualizer.canvasVisualizer.mediumVisualizer interferenceRangeLineStyle "\"solid\""
par Scenario.visualizer.canvasVisualizer.mediumVisualizer interferenceRangeLineWidth 1
par Scenario.visualizer.canvasVisualizer.mediumVisualizer autoPowerAxis true
par Scenario.visualizer.canvasVisualizer.mediumVisualizer signalMinPower "inf dBmW"
attr unit dBmW
par Scenario.visualizer.canvasVisualizer.mediumVisualizer signalMaxPower 0dBmW
attr unit dBmW
par Scenario.visualizer.canvasVisualizer.mediumVisualizer signalMinPowerDensity "inf dBmWpMHz"
attr unit dBmWpMHz
par Scenario.visualizer.canvasVisualizer.mediumVisualizer signalMaxPowerDensity "-inf dBmWpMHz"
attr unit dBmWpMHz
par Scenario.visualizer.canvasVisualizer.mediumVisualizer autoTimeAxis true
par Scenario.visualizer.canvasVisualizer.mediumVisualizer signalMinTime 0s
attr unit s
par Scenario.visualizer.canvasVisualizer.mediumVisualizer signalMaxTime 0s
attr unit s
par Scenario.visualizer.canvasVisualizer.mediumVisualizer autoFrequencyAxis true
par Scenario.visualizer.canvasVisualizer.mediumVisualizer signalMinFrequency "inf Hz"
attr unit Hz
par Scenario.visualizer.canvasVisualizer.mediumVisualizer signalMaxFrequency "-inf Hz"
attr unit Hz
par Scenario.visualizer.canvasVisualizer.mediumVisualizer displayMainPowerDensityMap false
par Scenario.visualizer.canvasVisualizer.mediumVisualizer mainPowerDensityMapPixmapDensity 1
par Scenario.visualizer.canvasVisualizer.mediumVisualizer mainPowerDensityMapMinX 0
par Scenario.visualizer.canvasVisualizer.mediumVisualizer mainPowerDensityMapMaxX "nan "
par Scenario.visualizer.canvasVisualizer.mediumVisualizer mainPowerDensityMapMinY 0
par Scenario.visualizer.canvasVisualizer.mediumVisualizer mainPowerDensityMapMaxY "nan "
par Scenario.visualizer.canvasVisualizer.mediumVisualizer mainPowerDensityMapZ 0
par Scenario.visualizer.canvasVisualizer.mediumVisualizer mainPowerDensityMapFigureXTickCount 3
par Scenario.visualizer.canvasVisualizer.mediumVisualizer mainPowerDensityMapFigureYTickCount 3
par Scenario.visualizer.canvasVisualizer.mediumVisualizer displayPowerDensityMaps false
par Scenario.visualizer.canvasVisualizer.mediumVisualizer powerDensityMapMode "\"auto\""
attr enum total,signal,auto
par Scenario.visualizer.canvasVisualizer.mediumVisualizer powerDensityMapPixelMode "\"mean\""
attr enum sample,partition,mean
par Scenario.visualizer.canvasVisualizer.mediumVisualizer powerDensityMapApproximationSize 10
par Scenario.visualizer.canvasVisualizer.mediumVisualizer powerDensityMapCenterFrequency "nan Hz"
attr mutable ""
attr unit Hz
par Scenario.visualizer.canvasVisualizer.mediumVisualizer powerDensityMapBandwidth 0Hz
attr mutable ""
attr unit Hz
par Scenario.visualizer.canvasVisualizer.mediumVisualizer powerDensityMapFigureWidth 200
par Scenario.visualizer.canvasVisualizer.mediumVisualizer powerDensityMapFigureHeight 120
par Scenario.visualizer.canvasVisualizer.mediumVisualizer powerDensityMapPixmapWidth 200
par Scenario.visualizer.canvasVisualizer.mediumVisualizer powerDensityMapPixmapHeight 120
par Scenario.visualizer.canvasVisualizer.mediumVisualizer powerDensityMapZ 0
par Scenario.visualizer.canvasVisualizer.mediumVisualizer powerDensityMapFigureXTickCount 3
par Scenario.visualizer.canvasVisualizer.mediumVisualizer powerDensityMapFigureYTickCount 3
par Scenario.visualizer.canvasVisualizer.mediumVisualizer displaySpectrums false
par Scenario.visualizer.canvasVisualizer.mediumVisualizer spectrumMode "\"auto\""
attr enum total,signal,auto
par Scenario.visualizer.canvasVisualizer.mediumVisualizer spectrumFigureWidth 200
par Scenario.visualizer.canvasVisualizer.mediumVisualizer spectrumFigureHeight 120
par Scenario.visualizer.canvasVisualizer.mediumVisualizer spectrumFigureXTickCount 3
par Scenario.visualizer.canvasVisualizer.mediumVisualizer spectrumFigureYTickCount 5
par Scenario.visualizer.canvasVisualizer.mediumVisualizer spectrumFigureInterpolationSize 5
par Scenario.visualizer.canvasVisualizer.mediumVisualizer spectrumPlacementHint "\"bottomCenter\""
par Scenario.visualizer.canvasVisualizer.mediumVisualizer spectrumPlacementPriority -1
par Scenario.visualizer.canvasVisualizer.mediumVisualizer displaySpectrograms false
par Scenario.visualizer.canvasVisualizer.mediumVisualizer spectrogramMode "\"auto\""
attr enum total,signal,auto
par Scenario.visualizer.canvasVisualizer.mediumVisualizer spectrogramPixelMode "\"mean\""
attr enum sample,partition,mean
par Scenario.visualizer.canvasVisualizer.mediumVisualizer spectrogramFigureWidth 200
par Scenario.visualizer.canvasVisualizer.mediumVisualizer spectrogramFigureHeight 120
par Scenario.visualizer.canvasVisualizer.mediumVisualizer spectrogramPixmapWidth 200
par Scenario.visualizer.canvasVisualizer.mediumVisualizer spectrogramPixmapHeight 120
par Scenario.visualizer.canvasVisualizer.mediumVisualizer spectrogramFigureXTickCount 3
par Scenario.visualizer.canvasVisualizer.mediumVisualizer spectrogramFigureYTickCount 5
par Scenario.visualizer.canvasVisualizer.mediumVisualizer spectrogramPlacementHint "\"bottomCenter\""
par Scenario.visualizer.canvasVisualizer.mediumVisualizer spectrogramPlacementPriority -1
par Scenario.visualizer.canvasVisualizer.mediumVisualizer zIndex 0
par Scenario.visualizer.canvasVisualizer.mediumVisualizer signalShape "\"ring\""
attr enum ring,sphere
par Scenario.visualizer.canvasVisualizer.mediumVisualizer signalOpacity 0.5
par Scenario.visualizer.canvasVisualizer.mediumVisualizer signalRingCount 20
par Scenario.visualizer.canvasVisualizer.mediumVisualizer signalRingSize 50m
attr unit m
par Scenario.visualizer.canvasVisualizer.mediumVisualizer signalFadingDistance 50m
attr unit m
par Scenario.visualizer.canvasVisualizer.mediumVisualizer signalFadingFactor 1.2
par Scenario.visualizer.canvasVisualizer.mediumVisualizer signalWaveCount 20
par Scenario.visualizer.canvasVisualizer.mediumVisualizer signalWaveLength 50m
attr unit m
par Scenario.visualizer.canvasVisualizer.mediumVisualizer signalWaveWidth 10m
attr unit m
par Scenario.visualizer.canvasVisualizer.mediumVisualizer signalWaveFadingAnimationSpeedFactor 1
par Scenario.visualizer.canvasVisualizer.mediumVisualizer displayCommunicationHeat false
par Scenario.visualizer.canvasVisualizer.obstacleLossVisualizer typename "\"inet.visualizer.canvas.physicallayer.TracingObstacleLossCanvasVisualizer\""
par Scenario.visualizer.canvasVisualizer.obstacleLossVisualizer visualizationTargetModule "\"^.^.^\""
par Scenario.visualizer.canvasVisualizer.obstacleLossVisualizer visualizationSubjectModule "\"^.^.^\""
par Scenario.visualizer.canvasVisualizer.obstacleLossVisualizer tags "\"\""
par Scenario.visualizer.canvasVisualizer.obstacleLossVisualizer displayIntersections false
par Scenario.visualizer.canvasVisualizer.obstacleLossVisualizer intersectionLineColor "\"red\""
par Scenario.visualizer.canvasVisualizer.obstacleLossVisualizer intersectionLineStyle "\"solid\""
par Scenario.visualizer.canvasVisualizer.obstacleLossVisualizer intersectionLineWidth 1
par Scenario.visualizer.canvasVisualizer.obstacleLossVisualizer displayFaceNormalVectors false
par Scenario.visualizer.canvasVisualizer.obstacleLossVisualizer faceNormalLineColor "\"grey\""
par Scenario.visualizer.canvasVisualizer.obstacleLossVisualizer faceNormalLineStyle "\"solid\""
par Scenario.visualizer.canvasVisualizer.obstacleLossVisualizer faceNormalLineWidth 1
par Scenario.visualizer.canvasVisualizer.obstacleLossVisualizer fadeOutMode "\"realTime\""
attr enum realTime,animationTime,simulationTime
par Scenario.visualizer.canvasVisualizer.obstacleLossVisualizer fadeOutTime 1s
attr unit s
par Scenario.visualizer.canvasVisualizer.obstacleLossVisualizer fadeOutAnimationSpeed 0
par Scenario.visualizer.canvasVisualizer.obstacleLossVisualizer zIndex 0
par Scenario.visualizer.canvasVisualizer.packetDropVisualizer typename "\"inet.visualizer.canvas.common.PacketDropCanvasVisualizer\""
par Scenario.visualizer.canvasVisualizer.packetDropVisualizer visualizationTargetModule "\"^.^.^\""
par Scenario.visualizer.canvasVisualizer.packetDropVisualizer visualizationSubjectModule "\"^.^.^\""
par Scenario.visualizer.canvasVisualizer.packetDropVisualizer tags "\"\""
par Scenario.visualizer.canvasVisualizer.packetDropVisualizer displayPacketDrops false
par Scenario.visualizer.canvasVisualizer.packetDropVisualizer nodeFilter "\"*\""
attr mutable ""
par Scenario.visualizer.canvasVisualizer.packetDropVisualizer interfaceFilter "\"*\""
attr mutable ""
par Scenario.visualizer.canvasVisualizer.packetDropVisualizer packetFilter "(omnetpp::cValueHolder)holder: \"*\""
attr mutable ""
par Scenario.visualizer.canvasVisualizer.packetDropVisualizer detailsFilter "\"*\""
attr mutable ""
par Scenario.visualizer.canvasVisualizer.packetDropVisualizer icon "\"msg/packet_s\""
par Scenario.visualizer.canvasVisualizer.packetDropVisualizer iconTintAmount 1
par Scenario.visualizer.canvasVisualizer.packetDropVisualizer iconTintColor "\"dark\""
par Scenario.visualizer.canvasVisualizer.packetDropVisualizer labelFormat "\"%n\""
attr mutable ""
par Scenario.visualizer.canvasVisualizer.packetDropVisualizer labelFont "\"<default>\""
par Scenario.visualizer.canvasVisualizer.packetDropVisualizer labelColor "\"black\""
par Scenario.visualizer.canvasVisualizer.packetDropVisualizer fadeOutMode "\"realTime\""
attr enum realTime,animationTime,simulationTime
par Scenario.visualizer.canvasVisualizer.packetDropVisualizer fadeOutTime 1s
attr unit s
par Scenario.visualizer.canvasVisualizer.packetDropVisualizer fadeOutAnimationSpeed 0
par Scenario.visualizer.canvasVisualizer.packetDropVisualizer zIndex 10
par Scenario.visualizer.canvasVisualizer.packetDropVisualizer dx 32
par Scenario.visualizer.canvasVisualizer.packetDropVisualizer dy 64
par Scenario.visualizer.canvasVisualizer.packetFlowVisualizer typename "\"inet.visualizer.canvas.flow.PacketFlowCanvasVisualizer\""
par Scenario.visualizer.canvasVisualizer.packetFlowVisualizer visualizationTargetModule "\"^.^.^\""
par Scenario.visualizer.canvasVisualizer.packetFlowVisualizer visualizationSubjectModule "\"^.^.^\""
par Scenario.visualizer.canvasVisualizer.packetFlowVisualizer tags "\"\""
par Scenario.visualizer.canvasVisualizer.packetFlowVisualizer displayRoutes false
par Scenario.visualizer.canvasVisualizer.packetFlowVisualizer startPathSignal "\"packetFlowStarted\""
par Scenario.visualizer.canvasVisualizer.packetFlowVisualizer extendPathSignal "\"packetReceivedFromLower\""
par Scenario.visualizer.canvasVisualizer.packetFlowVisualizer endPathSignal "\"packetFlowEnded\""
par Scenario.visualizer.canvasVisualizer.packetFlowVisualizer nodeFilter "\"*\""
attr mutable ""
par Scenario.visualizer.canvasVisualizer.packetFlowVisualizer packetFilter "(omnetpp::cValueHolder)holder: \"*\""
attr mutable ""
par Scenario.visualizer.canvasVisualizer.packetFlowVisualizer lineColor "\"dark\""
attr enum light,dark
par Scenario.visualizer.canvasVisualizer.packetFlowVisualizer lineStyle "\"dashed\""
par Scenario.visualizer.canvasVisualizer.packetFlowVisualizer lineWidth 3
par Scenario.visualizer.canvasVisualizer.packetFlowVisualizer lineSmooth false
par Scenario.visualizer.canvasVisualizer.packetFlowVisualizer lineShift 16
par Scenario.visualizer.canvasVisualizer.packetFlowVisualizer lineShiftMode "\"normal\""
par Scenario.visualizer.canvasVisualizer.packetFlowVisualizer lineContactSpacing 3
par Scenario.visualizer.canvasVisualizer.packetFlowVisualizer lineContactMode "\"rectangular\""
attr enum circular,rectangular
par Scenario.visualizer.canvasVisualizer.packetFlowVisualizer labelFormat "\"%L %p pk (%l)\""
par Scenario.visualizer.canvasVisualizer.packetFlowVisualizer labelFont "\"<default>, 8px\""
par Scenario.visualizer.canvasVisualizer.packetFlowVisualizer labelColor "\"\""
par Scenario.visualizer.canvasVisualizer.packetFlowVisualizer fadeOutMode "\"realTime\""
attr enum realTime,animationTime,simulationTime
par Scenario.visualizer.canvasVisualizer.packetFlowVisualizer fadeOutTime 0s
attr unit s
par Scenario.visualizer.canvasVisualizer.packetFlowVisualizer fadeOutAnimationSpeed 0
par Scenario.visualizer.canvasVisualizer.packetFlowVisualizer zIndex 4
par Scenario.visualizer.canvasVisualizer.queueVisualizer typename "\"inet.visualizer.canvas.common.QueueCanvasVisualizer\""
par Scenario.visualizer.canvasVisualizer.queueVisualizer visualizationTargetModule "\"^.^.^\""
par Scenario.visualizer.canvasVisualizer.queueVisualizer visualizationSubjectModule "\"^.^.^\""
par Scenario.visualizer.canvasVisualizer.queueVisualizer tags "\"\""
par Scenario.visualizer.canvasVisualizer.queueVisualizer networkNodeVisualizerModule "\"^.networkNodeVisualizer\""
par Scenario.visualizer.canvasVisualizer.queueVisualizer displayQueues false
par Scenario.visualizer.canvasVisualizer.queueVisualizer queueFilter "\"**\""
par Scenario.visualizer.canvasVisualizer.queueVisualizer color "\"blue\""
par Scenario.visualizer.canvasVisualizer.queueVisualizer width 8
par Scenario.visualizer.canvasVisualizer.queueVisualizer height 24
par Scenario.visualizer.canvasVisualizer.queueVisualizer spacing 2
par Scenario.visualizer.canvasVisualizer.queueVisualizer placementHint "\"right\""
par Scenario.visualizer.canvasVisualizer.queueVisualizer placementPriority 0
par Scenario.visualizer.canvasVisualizer.queueVisualizer zIndex 10
par Scenario.visualizer.canvasVisualizer.gateScheduleVisualizer typename "\"inet.visualizer.canvas.common.GateScheduleCanvasVisualizer\""
par Scenario.visualizer.canvasVisualizer.gateScheduleVisualizer visualizationTargetModule "\"^.^.^\""
par Scenario.visualizer.canvasVisualizer.gateScheduleVisualizer visualizationSubjectModule "\"^.^.^\""
par Scenario.visualizer.canvasVisualizer.gateScheduleVisualizer tags "\"\""
par Scenario.visualizer.canvasVisualizer.gateScheduleVisualizer networkNodeVisualizerModule "\"^.networkNodeVisualizer\""
par Scenario.visualizer.canvasVisualizer.gateScheduleVisualizer displayGateSchedules false
par Scenario.visualizer.canvasVisualizer.gateScheduleVisualizer labelFormat "\"%i %D\""
par Scenario.visualizer.canvasVisualizer.gateScheduleVisualizer gateFilter "\"**\""
par Scenario.visualizer.canvasVisualizer.gateScheduleVisualizer width 100
par Scenario.visualizer.canvasVisualizer.gateScheduleVisualizer height 8
par Scenario.visualizer.canvasVisualizer.gateScheduleVisualizer spacing 2
par Scenario.visualizer.canvasVisualizer.gateScheduleVisualizer placementHint "\"right\""
par Scenario.visualizer.canvasVisualizer.gateScheduleVisualizer placementPriority 0
par Scenario.visualizer.canvasVisualizer.gateScheduleVisualizer displayDuration 0s
attr mutable ""
attr unit s
par Scenario.visualizer.canvasVisualizer.gateScheduleVisualizer currentTimePosition 50
par Scenario.visualizer.canvasVisualizer.gateScheduleVisualizer zIndex 10
par Scenario.visualizer.canvasVisualizer.radioVisualizer typename "\"inet.visualizer.canvas.physicallayer.RadioCanvasVisualizer\""
par Scenario.visualizer.canvasVisualizer.radioVisualizer visualizationTargetModule "\"^.^.^\""
par Scenario.visualizer.canvasVisualizer.radioVisualizer visualizationSubjectModule "\"^.^.^\""
par Scenario.visualizer.canvasVisualizer.radioVisualizer tags "\"\""
par Scenario.visualizer.canvasVisualizer.radioVisualizer networkNodeVisualizerModule "\"^.networkNodeVisualizer\""
par Scenario.visualizer.canvasVisualizer.radioVisualizer displayRadios false
par Scenario.visualizer.canvasVisualizer.radioVisualizer displayRadioMode true
par Scenario.visualizer.canvasVisualizer.radioVisualizer displayReceptionState true
par Scenario.visualizer.canvasVisualizer.radioVisualizer displayTransmissionState true
par Scenario.visualizer.canvasVisualizer.radioVisualizer displayAntennaLobes false
par Scenario.visualizer.canvasVisualizer.radioVisualizer radioFilter "\"**\""
attr mutable ""
par Scenario.visualizer.canvasVisualizer.radioVisualizer radioModeImages "\"block/process_vs block/timer_vs block/wrx_vs block/wtx_vs block/wrxtx_vs block/cogwheel_vs\""
par Scenario.visualizer.canvasVisualizer.radioVisualizer receptionStateImages "\"- - misc/receiving misc/receiving\""
par Scenario.visualizer.canvasVisualizer.radioVisualizer transmissionStateImages "\"- - misc/transmitting\""
par Scenario.visualizer.canvasVisualizer.radioVisualizer width 16
par Scenario.visualizer.canvasVisualizer.radioVisualizer height 16
par Scenario.visualizer.canvasVisualizer.radioVisualizer placementHint "\"bottomRight\""
par Scenario.visualizer.canvasVisualizer.radioVisualizer placementPriority 0
par Scenario.visualizer.canvasVisualizer.radioVisualizer antennaLobeNormalize false
par Scenario.visualizer.canvasVisualizer.radioVisualizer antennaLobeRelativeLabels false
par Scenario.visualizer.canvasVisualizer.radioVisualizer antennaLobePlaneGlobal true
par Scenario.visualizer.canvasVisualizer.radioVisualizer antennaLobePlane "\"view\""
attr enum view,xy,xz,yz
par Scenario.visualizer.canvasVisualizer.radioVisualizer antennaLobeMode "\"logarithmic\""
attr enum logarithmic,linear
par Scenario.visualizer.canvasVisualizer.radioVisualizer antennaLobeLogarithmicBase 10
par Scenario.visualizer.canvasVisualizer.radioVisualizer antennaLobeLogarithmicScale 100
par Scenario.visualizer.canvasVisualizer.radioVisualizer antennaLobeRadius 100
par Scenario.visualizer.canvasVisualizer.radioVisualizer antennaLobeStep 10deg
attr unit deg
par Scenario.visualizer.canvasVisualizer.radioVisualizer antennaLobeOpacity 0.25
par Scenario.visualizer.canvasVisualizer.radioVisualizer antennaLobeLineSmooth true
par Scenario.visualizer.canvasVisualizer.radioVisualizer antennaLobeLineColor "\"black\""
par Scenario.visualizer.canvasVisualizer.radioVisualizer antennaLobeLineStyle "\"solid\""
par Scenario.visualizer.canvasVisualizer.radioVisualizer antennaLobeLineWidth 1
par Scenario.visualizer.canvasVisualizer.radioVisualizer antennaLobeFillColor "\"white\""
par Scenario.visualizer.canvasVisualizer.radioVisualizer zIndex 10
par Scenario.visualizer.canvasVisualizer.physicalLinkVisualizer typename "\"inet.visualizer.canvas.physicallayer.PhysicalLinkCanvasVisualizer\""
par Scenario.visualizer.canvasVisualizer.physicalLinkVisualizer visualizationTargetModule "\"^.^.^\""
par Scenario.visualizer.canvasVisualizer.physicalLinkVisualizer visualizationSubjectModule "\"^.^.^\""
par Scenario.visualizer.canvasVisualizer.physicalLinkVisualizer tags "\"\""
par Scenario.visualizer.canvasVisualizer.physicalLinkVisualizer displayLinks false
par Scenario.visualizer.canvasVisualizer.physicalLinkVisualizer activityLevel "\"service\""
attr enum service,peer,protocol
par Scenario.visualizer.canvasVisualizer.physicalLinkVisualizer nodeFilter "\"*\""
attr mutable ""
par Scenario.visualizer.canvasVisualizer.physicalLinkVisualizer interfaceFilter "\"*\""
attr mutable ""
par Scenario.visualizer.canvasVisualizer.physicalLinkVisualizer packetFilter "(omnetpp::cValueHolder)holder: \"*\""
attr mutable ""
par Scenario.visualizer.canvasVisualizer.physicalLinkVisualizer lineColor "\"olive\""
par Scenario.visualizer.canvasVisualizer.physicalLinkVisualizer lineStyle "\"dotted\""
par Scenario.visualizer.canvasVisualizer.physicalLinkVisualizer lineWidth 3
par Scenario.visualizer.canvasVisualizer.physicalLinkVisualizer lineShift 16
par Scenario.visualizer.canvasVisualizer.physicalLinkVisualizer lineShiftMode "\"normal\""
par Scenario.visualizer.canvasVisualizer.physicalLinkVisualizer lineContactSpacing 3
par Scenario.visualizer.canvasVisualizer.physicalLinkVisualizer lineContactMode "\"rectangular\""
attr enum circular,rectangular
par Scenario.visualizer.canvasVisualizer.physicalLinkVisualizer labelFormat "\"%n\""
par Scenario.visualizer.canvasVisualizer.physicalLinkVisualizer labelFont "\"<default>, 8px\""
par Scenario.visualizer.canvasVisualizer.physicalLinkVisualizer labelColor "\"olive\""
par Scenario.visualizer.canvasVisualizer.physicalLinkVisualizer fadeOutMode "\"realTime\""
attr enum realTime,animationTime,simulationTime
par Scenario.visualizer.canvasVisualizer.physicalLinkVisualizer fadeOutTime 1s
attr unit s
par Scenario.visualizer.canvasVisualizer.physicalLinkVisualizer fadeOutAnimationSpeed 0
par Scenario.visualizer.canvasVisualizer.physicalLinkVisualizer holdAnimationTime 0s
attr unit s
par Scenario.visualizer.canvasVisualizer.physicalLinkVisualizer zIndex 1
par Scenario.visualizer.canvasVisualizer.interfaceTableVisualizer typename "\"inet.visualizer.canvas.linklayer.InterfaceTableCanvasVisualizer\""
par Scenario.visualizer.canvasVisualizer.interfaceTableVisualizer visualizationTargetModule "\"^.^.^\""
par Scenario.visualizer.canvasVisualizer.interfaceTableVisualizer visualizationSubjectModule "\"^.^.^\""
par Scenario.visualizer.canvasVisualizer.interfaceTableVisualizer tags "\"\""
par Scenario.visualizer.canvasVisualizer.interfaceTableVisualizer networkNodeVisualizerModule "\"^.networkNodeVisualizer\""
par Scenario.visualizer.canvasVisualizer.interfaceTableVisualizer displayInterfaceTables false
par Scenario.visualizer.canvasVisualizer.interfaceTableVisualizer displayWiredInterfacesAtConnections true
par Scenario.visualizer.canvasVisualizer.interfaceTableVisualizer displayBackground false
par Scenario.visualizer.canvasVisualizer.interfaceTableVisualizer nodeFilter "\"*\""
attr mutable ""
par Scenario.visualizer.canvasVisualizer.interfaceTableVisualizer interfaceFilter "\"not(lo*)\""
attr mutable ""
par Scenario.visualizer.canvasVisualizer.interfaceTableVisualizer format "\"%N %\\\\%a%/%l\""
attr mutable ""
par Scenario.visualizer.canvasVisualizer.interfaceTableVisualizer placementHint "\"top\""
par Scenario.visualizer.canvasVisualizer.interfaceTableVisualizer placementPriority 0
par Scenario.visualizer.canvasVisualizer.interfaceTableVisualizer font "\"<default>\""
par Scenario.visualizer.canvasVisualizer.interfaceTableVisualizer textColor "\"#005030\""
par Scenario.visualizer.canvasVisualizer.interfaceTableVisualizer backgroundColor "\"white\""
par Scenario.visualizer.canvasVisualizer.interfaceTableVisualizer opacity 1
par Scenario.visualizer.canvasVisualizer.interfaceTableVisualizer zIndex 10
par Scenario.visualizer.canvasVisualizer.dataLinkVisualizer typename "\"inet.visualizer.canvas.linklayer.DataLinkCanvasVisualizer\""
par Scenario.visualizer.canvasVisualizer.dataLinkVisualizer visualizationTargetModule "\"^.^.^\""
par Scenario.visualizer.canvasVisualizer.dataLinkVisualizer visualizationSubjectModule "\"^.^.^\""
par Scenario.visualizer.canvasVisualizer.dataLinkVisualizer tags "\"\""
par Scenario.visualizer.canvasVisualizer.dataLinkVisualizer displayLinks false
par Scenario.visualizer.canvasVisualizer.dataLinkVisualizer activityLevel "\"service\""
attr enum service,peer,protocol
par Scenario.visualizer.canvasVisualizer.dataLinkVisualizer nodeFilter "\"*\""
attr mutable ""
par Scenario.visualizer.canvasVisualizer.dataLinkVisualizer interfaceFilter "\"*\""
attr mutable ""
par Scenario.visualizer.canvasVisualizer.dataLinkVisualizer packetFilter "(omnetpp::cValueHolder)holder: \"*\""
attr mutable ""
par Scenario.visualizer.canvasVisualizer.dataLinkVisualizer lineColor "\"darkcyan\""
par Scenario.visualizer.canvasVisualizer.dataLinkVisualizer lineStyle "\"solid\""
par Scenario.visualizer.canvasVisualizer.dataLinkVisualizer lineWidth 3
par Scenario.visualizer.canvasVisualizer.dataLinkVisualizer lineShift 16
par Scenario.visualizer.canvasVisualizer.dataLinkVisualizer lineShiftMode "\"normal\""
par Scenario.visualizer.canvasVisualizer.dataLinkVisualizer lineContactSpacing 3
par Scenario.visualizer.canvasVisualizer.dataLinkVisualizer lineContactMode "\"rectangular\""
attr enum circular,rectangular
par Scenario.visualizer.canvasVisualizer.dataLinkVisualizer labelFormat "\"%n\""
par Scenario.visualizer.canvasVisualizer.dataLinkVisualizer labelFont "\"<default>, 8px\""
par Scenario.visualizer.canvasVisualizer.dataLinkVisualizer labelColor "\"darkcyan\""
par Scenario.visualizer.canvasVisualizer.dataLinkVisualizer fadeOutMode "\"realTime\""
attr enum realTime,animationTime,simulationTime
par Scenario.visualizer.canvasVisualizer.dataLinkVisualizer fadeOutTime 1s
attr unit s
par Scenario.visualizer.canvasVisualizer.dataLinkVisualizer fadeOutAnimationSpeed 0
par Scenario.visualizer.canvasVisualizer.dataLinkVisualizer holdAnimationTime 0s
attr unit s
par Scenario.visualizer.canvasVisualizer.dataLinkVisualizer zIndex 2
par Scenario.visualizer.canvasVisualizer.linkBreakVisualizer typename "\"inet.visualizer.canvas.linklayer.LinkBreakCanvasVisualizer\""
par Scenario.visualizer.canvasVisualizer.linkBreakVisualizer visualizationTargetModule "\"^.^.^\""
par Scenario.visualizer.canvasVisualizer.linkBreakVisualizer visualizationSubjectModule "\"^.^.^\""
par Scenario.visualizer.canvasVisualizer.linkBreakVisualizer tags "\"\""
par Scenario.visualizer.canvasVisualizer.linkBreakVisualizer displayLinkBreaks false
par Scenario.visualizer.canvasVisualizer.linkBreakVisualizer nodeFilter "\"*\""
attr mutable ""
par Scenario.visualizer.canvasVisualizer.linkBreakVisualizer interfaceFilter "\"*\""
attr mutable ""
par Scenario.visualizer.canvasVisualizer.linkBreakVisualizer packetFilter "(omnetpp::cValueHolder)holder: \"*\""
attr mutable ""
par Scenario.visualizer.canvasVisualizer.linkBreakVisualizer icon "\"status/stop\""
par Scenario.visualizer.canvasVisualizer.linkBreakVisualizer iconTintAmount 0
par Scenario.visualizer.canvasVisualizer.linkBreakVisualizer iconTintColor "\"\""
par Scenario.visualizer.canvasVisualizer.linkBreakVisualizer fadeOutMode "\"realTime\""
attr enum realTime,animationTime,simulationTime
par Scenario.visualizer.canvasVisualizer.linkBreakVisualizer fadeOutTime 1s
attr unit s
par Scenario.visualizer.canvasVisualizer.linkBreakVisualizer fadeOutAnimationSpeed 0
par Scenario.visualizer.canvasVisualizer.linkBreakVisualizer zIndex 2
par Scenario.visualizer.canvasVisualizer.ieee80211Visualizer typename "\"inet.visualizer.canvas.linklayer.Ieee80211CanvasVisualizer\""
par Scenario.visualizer.canvasVisualizer.ieee80211Visualizer visualizationTargetModule "\"^.^.^\""
par Scenario.visualizer.canvasVisualizer.ieee80211Visualizer visualizationSubjectModule "\"^.^.^\""
par Scenario.visualizer.canvasVisualizer.ieee80211Visualizer tags "\"\""
par Scenario.visualizer.canvasVisualizer.ieee80211Visualizer networkNodeVisualizerModule "\"^.networkNodeVisualizer\""
par Scenario.visualizer.canvasVisualizer.ieee80211Visualizer displayAssociations false
par Scenario.visualizer.canvasVisualizer.ieee80211Visualizer nodeFilter "\"*\""
attr mutable ""
par Scenario.visualizer.canvasVisualizer.ieee80211Visualizer interfaceFilter "\"*\""
attr mutable ""
par Scenario.visualizer.canvasVisualizer.ieee80211Visualizer minPower -85dBm
attr unit dBm
par Scenario.visualizer.canvasVisualizer.ieee80211Visualizer maxPower -50dBm
attr unit dBm
par Scenario.visualizer.canvasVisualizer.ieee80211Visualizer icons "\"misc/signal_power_0 misc/signal_power_1 misc/signal_power_2 misc/signal_power_3\""
par Scenario.visualizer.canvasVisualizer.ieee80211Visualizer iconColor "\"dark\""
attr enum light,dark
par Scenario.visualizer.canvasVisualizer.ieee80211Visualizer labelFont "\"<default>\""
par Scenario.visualizer.canvasVisualizer.ieee80211Visualizer labelColor "\"black\""
par Scenario.visualizer.canvasVisualizer.ieee80211Visualizer placementHint "\"top\""
par Scenario.visualizer.canvasVisualizer.ieee80211Visualizer placementPriority 0
par Scenario.visualizer.canvasVisualizer.ieee80211Visualizer zIndex 2
par Scenario.visualizer.canvasVisualizer.networkRouteVisualizer typename "\"inet.visualizer.canvas.networklayer.NetworkRouteCanvasVisualizer\""
par Scenario.visualizer.canvasVisualizer.networkRouteVisualizer visualizationTargetModule "\"^.^.^\""
par Scenario.visualizer.canvasVisualizer.networkRouteVisualizer visualizationSubjectModule "\"^.^.^\""
par Scenario.visualizer.canvasVisualizer.networkRouteVisualizer tags "\"\""
par Scenario.visualizer.canvasVisualizer.networkRouteVisualizer displayRoutes false
par Scenario.visualizer.canvasVisualizer.networkRouteVisualizer startPathSignal "\"packetReceivedFromUpper\""
par Scenario.visualizer.canvasVisualizer.networkRouteVisualizer extendPathSignal "\"packetReceivedFromLower\""
par Scenario.visualizer.canvasVisualizer.networkRouteVisualizer endPathSignal "\"packetSentToUpper\""
par Scenario.visualizer.canvasVisualizer.networkRouteVisualizer nodeFilter "\"*\""
attr mutable ""
par Scenario.visualizer.canvasVisualizer.networkRouteVisualizer packetFilter "(omnetpp::cValueHolder)holder: \"*\""
attr mutable ""
par Scenario.visualizer.canvasVisualizer.networkRouteVisualizer lineColor "\"dark\""
attr enum light,dark
par Scenario.visualizer.canvasVisualizer.networkRouteVisualizer lineStyle "\"solid\""
par Scenario.visualizer.canvasVisualizer.networkRouteVisualizer lineWidth 3
par Scenario.visualizer.canvasVisualizer.networkRouteVisualizer lineSmooth false
par Scenario.visualizer.canvasVisualizer.networkRouteVisualizer lineShift 16
par Scenario.visualizer.canvasVisualizer.networkRouteVisualizer lineShiftMode "\"normal\""
par Scenario.visualizer.canvasVisualizer.networkRouteVisualizer lineContactSpacing 3
par Scenario.visualizer.canvasVisualizer.networkRouteVisualizer lineContactMode "\"rectangular\""
attr enum circular,rectangular
par Scenario.visualizer.canvasVisualizer.networkRouteVisualizer labelFormat "\"%n\""
par Scenario.visualizer.canvasVisualizer.networkRouteVisualizer labelFont "\"<default>, 8px\""
par Scenario.visualizer.canvasVisualizer.networkRouteVisualizer labelColor "\"\""
par Scenario.visualizer.canvasVisualizer.networkRouteVisualizer fadeOutMode "\"realTime\""
attr enum realTime,animationTime,simulationTime
par Scenario.visualizer.canvasVisualizer.networkRouteVisualizer fadeOutTime 1s
attr unit s
par Scenario.visualizer.canvasVisualizer.networkRouteVisualizer fadeOutAnimationSpeed 0
par Scenario.visualizer.canvasVisualizer.networkRouteVisualizer zIndex 3
par Scenario.visualizer.canvasVisualizer.routingTableVisualizer typename "\"inet.visualizer.canvas.networklayer.RoutingTableCanvasVisualizer\""
par Scenario.visualizer.canvasVisualizer.routingTableVisualizer visualizationTargetModule "\"^.^.^\""
par Scenario.visualizer.canvasVisualizer.routingTableVisualizer visualizationSubjectModule "\"^.^.^\""
par Scenario.visualizer.canvasVisualizer.routingTableVisualizer tags "\"\""
par Scenario.visualizer.canvasVisualizer.routingTableVisualizer displayRoutingTables false
par Scenario.visualizer.canvasVisualizer.routingTableVisualizer displayRoutesIndividually true
par Scenario.visualizer.canvasVisualizer.routingTableVisualizer displayLabels true
par Scenario.visualizer.canvasVisualizer.routingTableVisualizer destinationFilter "\"*\""
attr mutable ""
par Scenario.visualizer.canvasVisualizer.routingTableVisualizer nodeFilter "\"*\""
attr mutable ""
par Scenario.visualizer.canvasVisualizer.routingTableVisualizer lineColor "\"black\""
par Scenario.visualizer.canvasVisualizer.routingTableVisualizer lineStyle "\"solid\""
par Scenario.visualizer.canvasVisualizer.routingTableVisualizer lineWidth 2
par Scenario.visualizer.canvasVisualizer.routingTableVisualizer lineShift 16
par Scenario.visualizer.canvasVisualizer.routingTableVisualizer lineShiftMode "\"normal\""
par Scenario.visualizer.canvasVisualizer.routingTableVisualizer lineContactSpacing 3
par Scenario.visualizer.canvasVisualizer.routingTableVisualizer lineContactMode "\"rectangular\""
attr enum circular,rectangular
par Scenario.visualizer.canvasVisualizer.routingTableVisualizer labelFormat "\"%d/%m -> %g (%n)\""
attr mutable ""
par Scenario.visualizer.canvasVisualizer.routingTableVisualizer labelFont "\"<default>, 8px\""
par Scenario.visualizer.canvasVisualizer.routingTableVisualizer labelColor "\"black\""
par Scenario.visualizer.canvasVisualizer.routingTableVisualizer zIndex 0
par Scenario.visualizer.canvasVisualizer.transportRouteVisualizer typename "\"inet.visualizer.canvas.transportlayer.TransportRouteCanvasVisualizer\""
par Scenario.visualizer.canvasVisualizer.transportRouteVisualizer visualizationTargetModule "\"^.^.^\""
par Scenario.visualizer.canvasVisualizer.transportRouteVisualizer visualizationSubjectModule "\"^.^.^\""
par Scenario.visualizer.canvasVisualizer.transportRouteVisualizer tags "\"\""
par Scenario.visualizer.canvasVisualizer.transportRouteVisualizer displayRoutes false
par Scenario.visualizer.canvasVisualizer.transportRouteVisualizer startPathSignal "\"packetReceivedFromUpper\""
par Scenario.visualizer.canvasVisualizer.transportRouteVisualizer extendPathSignal "\"packetReceivedFromLower\""
par Scenario.visualizer.canvasVisualizer.transportRouteVisualizer endPathSignal "\"packetSentToUpper\""
par Scenario.visualizer.canvasVisualizer.transportRouteVisualizer nodeFilter "\"*\""
attr mutable ""
par Scenario.visualizer.canvasVisualizer.transportRouteVisualizer packetFilter "(omnetpp::cValueHolder)holder: \"*\""
attr mutable ""
par Scenario.visualizer.canvasVisualizer.transportRouteVisualizer lineColor "\"dark\""
attr enum light,dark
par Scenario.visualizer.canvasVisualizer.transportRouteVisualizer lineStyle "\"solid\""
par Scenario.visualizer.canvasVisualizer.transportRouteVisualizer lineWidth 3
par Scenario.visualizer.canvasVisualizer.transportRouteVisualizer lineSmooth false
par Scenario.visualizer.canvasVisualizer.transportRouteVisualizer lineShift 16
par Scenario.visualizer.canvasVisualizer.transportRouteVisualizer lineShiftMode "\"normal\""
par Scenario.visualizer.canvasVisualizer.transportRouteVisualizer lineContactSpacing 3
par Scenario.visualizer.canvasVisualizer.transportRouteVisualizer lineContactMode "\"rectangular\""
attr enum circular,rectangular
par Scenario.visualizer.canvasVisualizer.transportRouteVisualizer labelFormat "\"%n\""
par Scenario.visualizer.canvasVisualizer.transportRouteVisualizer labelFont "\"<default>, 8px\""
par Scenario.visualizer.canvasVisualizer.transportRouteVisualizer labelColor "\"\""
par Scenario.visualizer.canvasVisualizer.transportRouteVisualizer fadeOutMode "\"realTime\""
attr enum realTime,animationTime,simulationTime
par Scenario.visualizer.canvasVisualizer.transportRouteVisualizer fadeOutTime 1s
attr unit s
par Scenario.visualizer.canvasVisualizer.transportRouteVisualizer fadeOutAnimationSpeed 0
par Scenario.visualizer.canvasVisualizer.transportRouteVisualizer zIndex 4
par Scenario.visualizer.canvasVisualizer.transportConnectionVisualizer typename "\"inet.visualizer.canvas.transportlayer.TransportConnectionCanvasVisualizer\""
par Scenario.visualizer.canvasVisualizer.transportConnectionVisualizer visualizationTargetModule "\"^.^.^\""
par Scenario.visualizer.canvasVisualizer.transportConnectionVisualizer visualizationSubjectModule "\"^.^.^\""
par Scenario.visualizer.canvasVisualizer.transportConnectionVisualizer tags "\"\""
par Scenario.visualizer.canvasVisualizer.transportConnectionVisualizer networkNodeVisualizerModule "\"^.networkNodeVisualizer\""
par Scenario.visualizer.canvasVisualizer.transportConnectionVisualizer displayTransportConnections false
par Scenario.visualizer.canvasVisualizer.transportConnectionVisualizer sourceNodeFilter "\"*\""
attr mutable ""
par Scenario.visualizer.canvasVisualizer.transportConnectionVisualizer sourcePortFilter "\"*\""
attr mutable ""
par Scenario.visualizer.canvasVisualizer.transportConnectionVisualizer destinationNodeFilter "\"*\""
attr mutable ""
par Scenario.visualizer.canvasVisualizer.transportConnectionVisualizer destinationPortFilter "\"*\""
attr mutable ""
par Scenario.visualizer.canvasVisualizer.transportConnectionVisualizer icon "\"misc/marker_s\""
par Scenario.visualizer.canvasVisualizer.transportConnectionVisualizer iconColor "\"dark\""
attr enum light,dark
par Scenario.visualizer.canvasVisualizer.transportConnectionVisualizer labelFont "\"<default>\""
par Scenario.visualizer.canvasVisualizer.transportConnectionVisualizer labelColor "\"black\""
par Scenario.visualizer.canvasVisualizer.transportConnectionVisualizer placementHint "\"top\""
par Scenario.visualizer.canvasVisualizer.transportConnectionVisualizer placementPriority 0
par Scenario.visualizer.canvasVisualizer.transportConnectionVisualizer zIndex 4
par Scenario.visualizer.canvasVisualizer.failureProtectionConfigurationVisualizer typename "\"inet.visualizer.canvas.configurator.FailureProtectionConfigurationCanvasVisualizer\""
par Scenario.visualizer.canvasVisualizer.failureProtectionConfigurationVisualizer visualizationTargetModule "\"^.^.^\""
par Scenario.visualizer.canvasVisualizer.failureProtectionConfigurationVisualizer visualizationSubjectModule "\"^.^.^\""
par Scenario.visualizer.canvasVisualizer.failureProtectionConfigurationVisualizer tags "\"\""
par Scenario.visualizer.canvasVisualizer.failureProtectionConfigurationVisualizer displayTrees false
par Scenario.visualizer.canvasVisualizer.failureProtectionConfigurationVisualizer lineColor "\"dark\""
attr enum light,dark
par Scenario.visualizer.canvasVisualizer.failureProtectionConfigurationVisualizer lineStyle "\"solid\""
par Scenario.visualizer.canvasVisualizer.failureProtectionConfigurationVisualizer lineWidth 3
par Scenario.visualizer.canvasVisualizer.failureProtectionConfigurationVisualizer lineSmooth false
par Scenario.visualizer.canvasVisualizer.failureProtectionConfigurationVisualizer lineShift 16
par Scenario.visualizer.canvasVisualizer.failureProtectionConfigurationVisualizer lineShiftMode "\"normal\""
par Scenario.visualizer.canvasVisualizer.failureProtectionConfigurationVisualizer lineContactSpacing 3
par Scenario.visualizer.canvasVisualizer.failureProtectionConfigurationVisualizer lineContactMode "\"rectangular\""
attr enum circular,rectangular
par Scenario.visualizer.canvasVisualizer.failureProtectionConfigurationVisualizer failureProtectionConfiguratorModule "\"failureProtectionConfigurator\""
par Scenario.visualizer.canvasVisualizer.failureProtectionConfigurationVisualizer streamFilter "\"*\""
par Scenario.visualizer.canvasVisualizer.failureProtectionConfigurationVisualizer zIndex 3
par Scenario.visualizer.canvasVisualizer.streamRedundancyConfigurationVisualizer typename "\"inet.visualizer.canvas.configurator.StreamRedundancyConfigurationCanvasVisualizer\""
par Scenario.visualizer.canvasVisualizer.streamRedundancyConfigurationVisualizer visualizationTargetModule "\"^.^.^\""
par Scenario.visualizer.canvasVisualizer.streamRedundancyConfigurationVisualizer visualizationSubjectModule "\"^.^.^\""
par Scenario.visualizer.canvasVisualizer.streamRedundancyConfigurationVisualizer tags "\"\""
par Scenario.visualizer.canvasVisualizer.streamRedundancyConfigurationVisualizer displayTrees false
par Scenario.visualizer.canvasVisualizer.streamRedundancyConfigurationVisualizer lineColor "\"dark\""
attr enum light,dark
par Scenario.visualizer.canvasVisualizer.streamRedundancyConfigurationVisualizer lineStyle "\"solid\""
par Scenario.visualizer.canvasVisualizer.streamRedundancyConfigurationVisualizer lineWidth 3
par Scenario.visualizer.canvasVisualizer.streamRedundancyConfigurationVisualizer lineSmooth false
par Scenario.visualizer.canvasVisualizer.streamRedundancyConfigurationVisualizer lineShift 16
par Scenario.visualizer.canvasVisualizer.streamRedundancyConfigurationVisualizer lineShiftMode "\"normal\""
par Scenario.visualizer.canvasVisualizer.streamRedundancyConfigurationVisualizer lineContactSpacing 3
par Scenario.visualizer.canvasVisualizer.streamRedundancyConfigurationVisualizer lineContactMode "\"rectangular\""
attr enum circular,rectangular
par Scenario.visualizer.canvasVisualizer.streamRedundancyConfigurationVisualizer streamRedundancyConfiguratorModule "\"streamRedundancyConfigurator\""
par Scenario.visualizer.canvasVisualizer.streamRedundancyConfigurationVisualizer streamFilter "\"*\""
par Scenario.visualizer.canvasVisualizer.streamRedundancyConfigurationVisualizer zIndex 3
par Scenario.visualizer.canvasVisualizer typename "\"inet.visualizer.canvas.integrated.IntegratedCanvasVisualizer\""
par Scenario.visualizer typename "\"inet.visualizer.common.IntegratedVisualizer\""
par Scenario.physicalEnvironment typename "\"inet.environment.common.PhysicalEnvironment\""
par Scenario.physicalEnvironment coordinateSystemModule "\"\""
par Scenario.physicalEnvironment temperature 293K
attr unit K
par Scenario.physicalEnvironment spaceMinX "nan m"
attr unit m
par Scenario.physicalEnvironment spaceMinY "nan m"
attr unit m
par Scenario.physicalEnvironment spaceMinZ "nan m"
attr unit m
par Scenario.physicalEnvironment spaceMaxX "nan m"
attr unit m
par Scenario.physicalEnvironment spaceMaxY "nan m"
attr unit m
par Scenario.physicalEnvironment spaceMaxZ "nan m"
attr unit m
par Scenario.physicalEnvironment config "<environment>...</environment> at /home/simu5g/simu5g-workspace/veins_inet/examples/veins_inet//obstacles.xml:34"
par Scenario.roadsCanvasVisualizer typename "\"org.car2x.veins.visualizer.roads.RoadsCanvasVisualizer\""
par Scenario.roadsCanvasVisualizer enabled true
par Scenario.roadsCanvasVisualizer lineZIndex -1
par Scenario.roadsCanvasVisualizer lineColor "\"firebrick4\""
par Scenario.roadsCanvasVisualizer lineWidth 1
par Scenario.roadsCanvasVisualizer lineWidthZoom false
par Scenario.node[0].radioIn[0].channel typename "\"ned.IdealChannel\""
par Scenario.node[0].mobility typename "\"org.car2x.veins.subprojects.veins_inet.VeinsInetMobility\""
par Scenario.node[0].mobility subjectModule "\"^\""
par Scenario.node[0].mobility coordinateSystemModule "\"\""
par Scenario.node[0].mobility displayStringTextFormat "\"p: %p\\nv: %v\""
attr mutable ""
par Scenario.node[0].mobility updateDisplayString true
par Scenario.node[0].mobility constraintAreaMinX "-inf m"
attr unit m
par Scenario.node[0].mobility constraintAreaMinY "-inf m"
attr unit m
par Scenario.node[0].mobility constraintAreaMinZ "-inf m"
attr unit m
par Scenario.node[0].mobility constraintAreaMaxX "inf m"
attr unit m
par Scenario.node[0].mobility constraintAreaMaxY "inf m"
attr unit m
par Scenario.node[0].mobility constraintAreaMaxZ "inf m"
attr unit m
par Scenario.node[0].mobility initFromDisplayString true
par Scenario.node[0].interfaceTable typename "\"inet.networklayer.common.InterfaceTable\""
par Scenario.node[0].interfaceTable displayAddresses false
par Scenario.node[0].cb typename "\"inet.common.MessageDispatcher\""
par Scenario.node[0].cb displayStringTextFormat "\"processed %p pk (%l)\""
par Scenario.node[0].cb forwardServiceRegistration true
par Scenario.node[0].cb forwardProtocolRegistration true
par Scenario.node[0].bl typename "\"inet.common.MessageDispatcher\""
par Scenario.node[0].bl displayStringTextFormat "\"processed %p pk (%l)\""
par Scenario.node[0].bl forwardServiceRegistration true
par Scenario.node[0].bl forwardProtocolRegistration true
par Scenario.node[0].li typename "\"inet.common.MessageDispatcher\""
par Scenario.node[0].li displayStringTextFormat "\"processed %p pk (%l)\""
par Scenario.node[0].li forwardServiceRegistration true
par Scenario.node[0].li forwardProtocolRegistration true
par Scenario.node[0].lo[0].upperLayerIn.channel typename "\"ned.IdealChannel\""
par Scenario.node[0].lo[0].lo.upperLayerOut.channel typename "\"ned.IdealChannel\""
par Scenario.node[0].lo[0].lo typename "\"inet.linklayer.loopback.Loopback\""
par Scenario.node[0].lo[0].lo interfaceTableModule "\"Scenario.node[0].interfaceTable\""
par Scenario.node[0].lo[0].lo mtu 4470B
attr unit B
scalar Scenario.node[0].lo[0].lo rcvdPkFromHl:count 9
attr interpolationmode none
attr recordingmode count
attr source packetReceivedFromUpper
attr title "packets received from higher layer, count"
scalar Scenario.node[0].lo[0].lo rcvdPkFromHl:sum(packetBytes) 9952
attr interpolationmode none
attr recordingmode sum(packetBytes)
attr source packetReceivedFromUpper
attr title "packets received from higher layer, sum(packetBytes)"
scalar Scenario.node[0].lo[0].lo passedUpPk:count 9
attr interpolationmode none
attr recordingmode count
attr source packetSentToUpper
attr title "packets passed to higher layer, count"
scalar Scenario.node[0].lo[0].lo passedUpPk:sum(packetBytes) 9952
attr interpolationmode none
attr recordingmode sum(packetBytes)
attr source packetSentToUpper
attr title "packets passed to higher layer, sum(packetBytes)"
par Scenario.node[0].lo[0] typename "\"inet.linklayer.loopback.LoopbackInterface\""
par Scenario.node[0].lo[0] displayStringTextFormat "\"%a (%i)\\n%m\""
par Scenario.node[0].lo[0] recordPcap false
par Scenario.node[0].lo[0] numPcapRecorders 0
par Scenario.node[0].lo[0] interfaceTableModule "\"Scenario.node[0].interfaceTable\""
scalar Scenario.node[0].lo[0] packetDropInterfaceDown:count 0
attr interpolationmode none
attr recordingmode count
attr source packetDropReasonIsInterfaceDown(packetDropped)
attr title "packet drops: interface down, count"
scalar Scenario.node[0].lo[0] packetDropInterfaceDown:sum(packetBytes) 0
attr interpolationmode none
attr recordingmode sum(packetBytes)
attr source packetDropReasonIsInterfaceDown(packetDropped)
attr title "packet drops: interface down, sum(packetBytes)"
scalar Scenario.node[0].lo[0] packetDropNoCarrier:count 0
attr interpolationmode none
attr recordingmode count
attr source packetDropReasonIsNoCarrier(packetDropped)
attr title "packet drops: no carrier, count"
scalar Scenario.node[0].lo[0] packetDropNoCarrier:sum(packetBytes) 0
attr interpolationmode none
attr recordingmode sum(packetBytes)
attr source packetDropReasonIsNoCarrier(packetDropped)
attr title "packet drops: no carrier, sum(packetBytes)"
par Scenario.node[0].wlan[0].radioIn.channel typename "\"ned.IdealChannel\""
par Scenario.node[0].wlan[0].llc.upperLayerOut.channel typename "\"ned.IdealChannel\""
par Scenario.node[0].wlan[0].upperLayerIn.channel typename "\"ned.IdealChannel\""
par Scenario.node[0].wlan[0].mib typename "\"inet.linklayer.ieee80211.mib.Ieee80211Mib\""
par Scenario.node[0].wlan[0].llc typename "\"inet.linklayer.ieee80211.llc.Ieee80211LlcEpd\""
par Scenario.node[0].wlan[0].mgmt typename "\"inet.linklayer.ieee80211.mgmt.Ieee80211MgmtAdhoc\""
par Scenario.node[0].wlan[0].mgmt mibModule "\"Scenario.node[0].wlan[0].mib\""
par Scenario.node[0].wlan[0].mgmt macModule "\"Scenario.node[0].wlan[0].mac\""
par Scenario.node[0].wlan[0].mgmt interfaceTableModule "\"Scenario.node[0].interfaceTable\""
par Scenario.node[0].wlan[0].mac.dcf.channelAccess.pendingQueue typename "\"inet.linklayer.ieee80211.mac.queue.PendingQueue\""
par Scenario.node[0].wlan[0].mac.dcf.channelAccess.pendingQueue displayStringTextFormat "\"contains %p pk (%l) pushed %u\\npulled %o removed %r dropped %d\""
par Scenario.node[0].wlan[0].mac.dcf.channelAccess.pendingQueue packetCapacity 100
par Scenario.node[0].wlan[0].mac.dcf.channelAccess.pendingQueue dataCapacity -1b
attr unit b
par Scenario.node[0].wlan[0].mac.dcf.channelAccess.pendingQueue dropperClass "\"inet::queueing::PacketAtCollectionEndDropper\""
par Scenario.node[0].wlan[0].mac.dcf.channelAccess.pendingQueue comparatorClass "\"inet::ieee80211::MgmtOverDataComparator\""
par Scenario.node[0].wlan[0].mac.dcf.channelAccess.pendingQueue bufferModule "\"\""
scalar Scenario.node[0].wlan[0].mac.dcf.channelAccess.pendingQueue queueLength:last 1
attr autoWarmupFilter false
attr interpolationmode sample-hold
attr recordingmode last
attr source "warmup(atomic(constant0(packetPushEnded) + count(packetPushStarted) - count(packetPulled) - count(packetRemoved) - count(packetDropped)))"
attr title "queue length, last"
attr unit pk
scalar Scenario.node[0].wlan[0].mac.dcf.channelAccess.pendingQueue queueLength:max 4
attr autoWarmupFilter false
attr interpolationmode sample-hold
attr recordingmode max
attr source "warmup(atomic(constant0(packetPushEnded) + count(packetPushStarted) - count(packetPulled) - count(packetRemoved) - count(packetDropped)))"
attr title "queue length, max"
attr unit pk
scalar Scenario.node[0].wlan[0].mac.dcf.channelAccess.pendingQueue queueLength:timeavg 0.00026305570878561
attr autoWarmupFilter false
attr interpolationmode sample-hold
attr recordingmode timeavg
attr source "warmup(atomic(constant0(packetPushEnded) + count(packetPushStarted) - count(packetPulled) - count(packetRemoved) - count(packetDropped)))"
attr title "queue length, timeavg"
attr unit pk
scalar Scenario.node[0].wlan[0].mac.dcf.channelAccess.pendingQueue queueBitLength:last 10064
attr autoWarmupFilter false
attr interpolationmode sample-hold
attr recordingmode last
attr source "warmup(atomic(constant0(packetPushEnded) + sum(packetLength(packetPushStarted)) - sum(packetLength(packetPulled)) - sum(packetLength(packetRemoved)) - sum(packetLength(packetDropped))))"
attr title "queue bit length, last"
attr unit b
scalar Scenario.node[0].wlan[0].mac.dcf.channelAccess.pendingQueue queueBitLength:max 40256
attr autoWarmupFilter false
attr interpolationmode sample-hold
attr recordingmode max
attr source "warmup(atomic(constant0(packetPushEnded) + sum(packetLength(packetPushStarted)) - sum(packetLength(packetPulled)) - sum(packetLength(packetRemoved)) - sum(packetLength(packetDropped))))"
attr title "queue bit length, max"
attr unit b
scalar Scenario.node[0].wlan[0].mac.dcf.channelAccess.pendingQueue queueBitLength:timeavg 2.6473926532184
attr autoWarmupFilter false
attr interpolationmode sample-hold
attr recordingmode timeavg
attr source "warmup(atomic(constant0(packetPushEnded) + sum(packetLength(packetPushStarted)) - sum(packetLength(packetPulled)) - sum(packetLength(packetRemoved)) - sum(packetLength(packetDropped))))"
attr title "queue bit length, timeavg"
attr unit b
statistic Scenario.node[0].wlan[0].mac.dcf.channelAccess.pendingQueue queueingTime:histogram
field count 8
field mean 0.000373378011
field stddev 0.00074807119492367
field min 0
field max 0.002028024088
field sum 0.002987024088
field sqrsum 5.0325627015082e-06
attr interpolationmode none
attr recordingmode histogram
attr source queueingTime(packetPulled)
attr title "queueing times"
attr unit s
bin	-inf	0
bin	0	6
bin	5e-05	0
bin	0.0001	0
bin	0.00015	0
bin	0.0002	0
bin	0.00025	0
bin	0.0003	0
bin	0.00035	0
bin	0.0004	0
bin	0.00045	0
bin	0.0005	0
bin	0.00055	0
bin	0.0006	0
bin	0.00065	0
bin	0.0007	0
bin	0.00075	0
bin	0.0008	0
bin	0.00085	0
bin	0.0009	0
bin	0.00095	1
bin	0.001	0
bin	0.00105	0
bin	0.0011	0
bin	0.00115	0
bin	0.0012	0
bin	0.00125	0
bin	0.0013	0
bin	0.00135	0
bin	0.0014	0
bin	0.00145	0
bin	0.0015	0
bin	0.00155	0
bin	0.0016	0
bin	0.00165	0
bin	0.0017	0
bin	0.00175	0
bin	0.0018	0
bin	0.00185	0
bin	0.0019	0
bin	0.00195	0
bin	0.002	1
bin	0.00205	0
bin	0.0021	0
bin	0.00215	0
bin	0.0022	0
bin	0.00225	0
bin	0.0023	0
bin	0.00235	0
bin	0.0024	0
bin	0.00245	0
bin	0.0025	0
bin	0.00255	0
scalar Scenario.node[0].wlan[0].mac.dcf.channelAccess.pendingQueue outgoingPackets:count 8
attr recordingmode count
attr source packetPulled
attr title "outgoing packets, count"
attr unit pk
scalar Scenario.node[0].wlan[0].mac.dcf.channelAccess.pendingQueue outgoingPacketLengths:sum 71712
attr interpolationmode none
attr recordingmode sum
attr source packetLength(packetPulled)
attr title "outgoing packet lengths, sum"
attr unit b
statistic Scenario.node[0].wlan[0].mac.dcf.channelAccess.pendingQueue outgoingPacketLengths:histogram
field count 8
field mean 8964
field stddev 3111.2698372208
field min 1264
field max 10064
field sum 71712
field sqrsum 710586368
attr interpolationmode none
attr recordingmode histogram
attr source packetLength(packetPulled)
attr title "outgoing packet lengths"
attr unit b
bin	-inf	0
bin	0	0
bin	200	0
bin	400	0
bin	600	0
bin	800	0
bin	1000	0
bin	1200	1
bin	1400	0
bin	1600	0
bin	1800	0
bin	2000	0
bin	2200	0
bin	2400	0
bin	2600	0
bin	2800	0
bin	3000	0
bin	3200	0
bin	3400	0
bin	3600	0
bin	3800	0
bin	4000	0
bin	4200	0
bin	4400	0
bin	4600	0
bin	4800	0
bin	5000	0
bin	5200	0
bin	5400	0
bin	5600	0
bin	5800	0
bin	6000	0
bin	6200	0
bin	6400	0
bin	6600	0
bin	6800	0
bin	7000	0
bin	7200	0
bin	7400	0
bin	7600	0
bin	7800	0
bin	8000	0
bin	8200	0
bin	8400	0
bin	8600	0
bin	8800	0
bin	9000	0
bin	9200	0
bin	9400	0
bin	9600	0
bin	9800	0
bin	10000	7
bin	10200	0
bin	10400	0
bin	10600	0
bin	10800	0
bin	11000	0
bin	11200	0
bin	11400	0
bin	11600	0
bin	11800	0
bin	12000	0
bin	12200	0
bin	12400	0
statistic Scenario.node[0].wlan[0].mac.dcf.channelAccess.pendingQueue flowQueueingTime:histogram
field count 0
field mean -nan
field stddev nan
field min nan
field max nan
field sum 0
field sqrsum 0
attr interpolationmode none
attr recordingmode histogram
attr source queueingTime(demuxFlow(packetPulled))
attr title "flow queueing times"
attr unit s
bin	-inf	0
bin	0	0
bin	1	0
scalar Scenario.node[0].wlan[0].mac.dcf.channelAccess.pendingQueue incomingPackets:count 9
attr recordingmode count
attr source packetPushStarted
attr title "incoming packets, count"
attr unit pk
scalar Scenario.node[0].wlan[0].mac.dcf.channelAccess.pendingQueue incomingPacketLengths:sum 81776
attr interpolationmode none
attr recordingmode sum
attr source packetLength(packetPushStarted)
attr title "incoming packet lengths, sum"
attr unit b
statistic Scenario.node[0].wlan[0].mac.dcf.channelAccess.pendingQueue incomingPacketLengths:histogram
field count 9
field mean 9086.2222222222
field stddev 2933.3333333333
field min 1264
field max 10064
field sum 81776
field sqrsum 811870464
attr interpolationmode none
attr recordingmode histogram
attr source packetLength(packetPushStarted)
attr title "incoming packet lengths"
attr unit b
bin	-inf	0
bin	0	0
bin	200	0
bin	400	0
bin	600	0
bin	800	0
bin	1000	0
bin	1200	1
bin	1400	0
bin	1600	0
bin	1800	0
bin	2000	0
bin	2200	0
bin	2400	0
bin	2600	0
bin	2800	0
bin	3000	0
bin	3200	0
bin	3400	0
bin	3600	0
bin	3800	0
bin	4000	0
bin	4200	0
bin	4400	0
bin	4600	0
bin	4800	0
bin	5000	0
bin	5200	0
bin	5400	0
bin	5600	0
bin	5800	0
bin	6000	0
bin	6200	0
bin	6400	0
bin	6600	0
bin	6800	0
bin	7000	0
bin	7200	0
bin	7400	0
bin	7600	0
bin	7800	0
bin	8000	0
bin	8200	0
bin	8400	0
bin	8600	0
bin	8800	0
bin	9000	0
bin	9200	0
bin	9400	0
bin	9600	0
bin	9800	0
bin	10000	8
bin	10200	0
bin	10400	0
bin	10600	0
bin	10800	0
bin	11000	0
bin	11200	0
bin	11400	0
bin	11600	0
bin	11800	0
bin	12000	0
bin	12200	0
bin	12400	0
scalar Scenario.node[0].wlan[0].mac.dcf.channelAccess.pendingQueue droppedPacketsQueueOverflow:count 0
attr interpolationmode none
attr recordingmode count
attr source packetDropReasonIsQueueOverflow(packetDropped)
attr title "dropped packets: queue overflow, count"
attr unit pk
scalar Scenario.node[0].wlan[0].mac.dcf.channelAccess.pendingQueue droppedPacketLengthsQueueOverflow:sum 0
attr interpolationmode none
attr recordingmode sum
attr source packetLength(packetDropReasonIsQueueOverflow(packetDropped))
attr title "dropped packet lengths: queue overflow, sum"
attr unit b
par Scenario.node[0].wlan[0].mac.dcf.channelAccess.inProgressFrames typename "\"inet.linklayer.ieee80211.mac.queue.InProgressFrames\""
par Scenario.node[0].wlan[0].mac.dcf.channelAccess.inProgressFrames pendingQueueModule "\"^.pendingQueue\""
par Scenario.node[0].wlan[0].mac.dcf.channelAccess.inProgressFrames originatorMacDataServiceModule "\"^.^.originatorMacDataService\""
par Scenario.node[0].wlan[0].mac.dcf.channelAccess.inProgressFrames ackHandlerModule "\"^.^.ackHandler\""
statistic Scenario.node[0].wlan[0].mac.dcf.channelAccess.inProgressFrames queueingTime:histogram
field count 6
field mean 0.001910257276
field stddev 0.0019171860572639
field min 0.000152
field max 0.004828271828
field sum 0.011461543656
field sqrsum 4.0272509053901e-05
attr interpolationmode none
attr recordingmode histogram
attr source queueingTime(packetDequeued)
attr title "queueing times"
bin	-inf	0
bin	0	0
bin	0.0001	1
bin	0.0002	0
bin	0.0003	0
bin	0.0004	0
bin	0.0005	0
bin	0.0006	0
bin	0.0007	0
bin	0.0008	3
bin	0.0009	0
bin	0.001	0
bin	0.0011	0
bin	0.0012	0
bin	0.0013	0
bin	0.0014	0
bin	0.0015	0
bin	0.0016	0
bin	0.0017	0
bin	0.0018	0
bin	0.0019	0
bin	0.002	0
bin	0.0021	0
bin	0.0022	0
bin	0.0023	0
bin	0.0024	0
bin	0.0025	0
bin	0.0026	0
bin	0.0027	0
bin	0.0028	0
bin	0.0029	0
bin	0.003	0
bin	0.0031	0
bin	0.0032	0
bin	0.0033	0
bin	0.0034	0
bin	0.0035	0
bin	0.0036	0
bin	0.0037	0
bin	0.0038	1
bin	0.0039	0
bin	0.004	0
bin	0.0041	0
bin	0.0042	0
bin	0.0043	0
bin	0.0044	0
bin	0.0045	0
bin	0.0046	0
bin	0.0047	0
bin	0.0048	1
bin	0.0049	0
bin	0.005	0
bin	0.0051	0
bin	0.0052	0
bin	0.0053	0
bin	0.0054	0
bin	0.0055	0
bin	0.0056	0
bin	0.0057	0
bin	0.0058	0
bin	0.0059	0
bin	0.006	0
scalar Scenario.node[0].wlan[0].mac.dcf.channelAccess.inProgressFrames queueLength:max 2
attr autoWarmupFilter false
attr interpolationmode sample-hold
attr recordingmode max
attr source "warmup(count(packetEnqueued) - count(packetDequeued))"
attr title "queue length, max"
scalar Scenario.node[0].wlan[0].mac.dcf.channelAccess.inProgressFrames queueLength:timeavg 0.00035588338117825
attr autoWarmupFilter false
attr interpolationmode sample-hold
attr recordingmode timeavg
attr source "warmup(count(packetEnqueued) - count(packetDequeued))"
attr title "queue length, timeavg"
par Scenario.node[0].wlan[0].mac.dcf.channelAccess.contention typename "\"inet.linklayer.ieee80211.mac.contention.Contention\""
par Scenario.node[0].wlan[0].mac.dcf.channelAccess.contention initialChannelBusy true
par Scenario.node[0].wlan[0].mac.dcf.channelAccess.contention backoffOptimization true
scalar Scenario.node[0].wlan[0].mac.dcf.channelAccess.contention channelAccessGranted:count 7
attr recordingmode count
attr title "channel access granted, count"
scalar Scenario.node[0].wlan[0].mac.dcf.channelAccess.contention stateChanged:count 80
attr enum IDLE,DEFER,IFS_AND_BACKOFF
attr interpolationmode none
attr recordingmode count
attr title "contention state changed, count"
attr type enum
[...]
attr source receptionStateChanged
attr title "Radio reception state, count"
scalar Scenario.node[3].wlan[0].radio transmissionState:count 0
attr interpolationmode sample-hold
attr recordingmode count
attr source transmissionStateChanged
attr title "Radio transmission state, count"
statistic Scenario.node[3].wlan[0].radio minSnir:histogram
field count 9
field mean 9659.8457560949
field stddev 6408.6907696405
field min 4661.7186769783
field max 24521.169405398
field sum 86938.611804854
field sqrsum 1168384119.3309
attr recordingmode histogram
attr source minimumSnir(packetSentToUpper)
attr title "Min SNIR"
bin	-inf	0
bin	0	0
bin	500	0
bin	1000	0
bin	1500	0
bin	2000	0
bin	2500	0
bin	3000	0
bin	3500	0
bin	4000	0
bin	4500	3
bin	5000	0
bin	5500	0
bin	6000	0
bin	6500	0
bin	7000	0
bin	7500	3
bin	8000	0
bin	8500	0
bin	9000	0
bin	9500	0
bin	10000	0
bin	10500	0
bin	11000	0
bin	11500	0
bin	12000	0
bin	12500	2
bin	13000	0
bin	13500	0
bin	14000	0
bin	14500	0
bin	15000	0
bin	15500	0
bin	16000	0
bin	16500	0
bin	17000	0
bin	17500	0
bin	18000	0
bin	18500	0
bin	19000	0
bin	19500	0
bin	20000	0
bin	20500	0
bin	21000	0
bin	21500	0
bin	22000	0
bin	22500	0
bin	23000	0
bin	23500	0
bin	24000	0
bin	24500	1
bin	25000	0
bin	25500	0
bin	26000	0
bin	26500	0
bin	27000	0
bin	27500	0
bin	28000	0
bin	28500	0
bin	29000	0
bin	29500	0
statistic Scenario.node[3].wlan[0].radio packetErrorRate:histogram
field count 9
field mean 0
field stddev 0
field min 0
field max 0
field sum 0
field sqrsum 0
attr recordingmode histogram
attr source packetErrorRate(packetSentToUpper)
attr title "Packet error rate"
bin	-inf	0
bin	-0.5	0
bin	-0.48	0
bin	-0.46	0
bin	-0.44	0
bin	-0.42	0
bin	-0.4	0
bin	-0.38	0
bin	-0.36	0
bin	-0.34	0
bin	-0.32	0
bin	-0.3	0
bin	-0.28	0
bin	-0.26	0
bin	-0.24	0
bin	-0.22	0
bin	-0.2	0
bin	-0.18	0
bin	-0.16	0
bin	-0.14	0
bin	-0.12	0
bin	-0.1	0
bin	-0.08	0
bin	-0.06	0
bin	-0.04	0
bin	-0.02	0
bin	0	9
bin	0.02	0
bin	0.04	0
bin	0.06	0
bin	0.08	0
bin	0.1	0
bin	0.12	0
bin	0.14	0
bin	0.16	0
bin	0.18	0
bin	0.2	0
bin	0.22	0
bin	0.24	0
bin	0.26	0
bin	0.28	0
bin	0.3	0
bin	0.32	0
bin	0.34	0
bin	0.36	0
bin	0.38	0
bin	0.4	0
bin	0.42	0
bin	0.44	0
bin	0.46	0
bin	0.48	0
bin	0.5	0
statistic Scenario.node[3].wlan[0].radio bitErrorRate:histogram
field count 0
field mean -nan
field stddev nan
field min nan
field max nan
field sum 0
field sqrsum 0
attr recordingmode histogram
attr source bitErrorRate(packetSentToUpper)
attr title "Bit error rate"
bin	-inf	0
bin	0	0
bin	1	0
statistic Scenario.node[3].wlan[0].radio symbolErrorRate:histogram
field count 0
field mean -nan
field stddev nan
field min nan
field max nan
field sum 0
field sqrsum 0
attr recordingmode histogram
attr source symbolErrorRate(packetSentToUpper)
attr title "Symbol error rate"
bin	-inf	0
bin	0	0
bin	1	0
par Scenario.node[3].wlan[0] typename "\"inet.linklayer.ieee80211.Ieee80211Interface\""
par Scenario.node[3].wlan[0] displayStringTextFormat "\"%a (%i)\\n%m\""
par Scenario.node[3].wlan[0] recordPcap false
par Scenario.node[3].wlan[0] numPcapRecorders 0
par Scenario.node[3].wlan[0] interfaceTableModule "\"Scenario.node[3].interfaceTable\""
par Scenario.node[3].wlan[0] energySourceModule "\"\""
par Scenario.node[3].wlan[0] opMode "\"p\""
attr enum a,b,g(erp),g(mixed),n(mixed-2.4Ghz),p,ac
par Scenario.node[3].wlan[0] address "\"0A-AA-00-00-00-04\""
attr mutable ""
par Scenario.node[3].wlan[0] protocol "\"\""
par Scenario.node[3].wlan[0] bitrate -1bps
attr unit bps
scalar Scenario.node[3].wlan[0] packetDropInterfaceDown:count 0
attr interpolationmode none
attr recordingmode count
attr source packetDropReasonIsInterfaceDown(packetDropped)
attr title "packet drops: interface down, count"
scalar Scenario.node[3].wlan[0] packetDropInterfaceDown:sum(packetBytes) 0
attr interpolationmode none
attr recordingmode sum(packetBytes)
attr source packetDropReasonIsInterfaceDown(packetDropped)
attr title "packet drops: interface down, sum(packetBytes)"
scalar Scenario.node[3].wlan[0] packetDropNoCarrier:count 0
attr interpolationmode none
attr recordingmode count
attr source packetDropReasonIsNoCarrier(packetDropped)
attr title "packet drops: no carrier, count"
scalar Scenario.node[3].wlan[0] packetDropNoCarrier:sum(packetBytes) 0
attr interpolationmode none
attr recordingmode sum(packetBytes)
attr source packetDropReasonIsNoCarrier(packetDropped)
attr title "packet drops: no carrier, sum(packetBytes)"
par Scenario.node[3].ipv4.transportIn.channel typename "\"ned.IdealChannel\""
par Scenario.node[3].ipv4.up.out[0].channel typename "\"ned.IdealChannel\""
par Scenario.node[3].ipv4.lp.out[2].channel typename "\"ned.IdealChannel\""
par Scenario.node[3].ipv4.ifIn.channel typename "\"ned.IdealChannel\""
par Scenario.node[3].ipv4.configurator typename "\"inet.networklayer.configurator.ipv4.HostAutoConfigurator\""
par Scenario.node[3].ipv4.configurator interfaceTableModule "\"Scenario.node[3].interfaceTable\""
par Scenario.node[3].ipv4.configurator interfaces "\"wlan0\""
par Scenario.node[3].ipv4.configurator addressBase "\"10.0.0.0\""
par Scenario.node[3].ipv4.configurator netmask "\"255.0.0.0\""
par Scenario.node[3].ipv4.configurator mcastGroups "\"224.0.0.1\""
par Scenario.node[3].ipv4.routingTable typename "\"inet.networklayer.ipv4.Ipv4RoutingTable\""
par Scenario.node[3].ipv4.routingTable interfaceTableModule "\"Scenario.node[3].interfaceTable\""
par Scenario.node[3].ipv4.routingTable routerId "\"auto\""
par Scenario.node[3].ipv4.routingTable netmaskRoutes "\"*\""
par Scenario.node[3].ipv4.routingTable forwarding true
par Scenario.node[3].ipv4.routingTable multicastForwarding false
par Scenario.node[3].ipv4.routingTable useAdminDist false
par Scenario.node[3].ipv4.routingTable routingFile "\"\""
par Scenario.node[3].ipv4.natTable typename "\"inet.networklayer.ipv4.Ipv4NatTable\""
par Scenario.node[3].ipv4.natTable networkProtocolModule "\"^.ip\""
par Scenario.node[3].ipv4.natTable config "<config/> at content:1"
par Scenario.node[3].ipv4.up typename "\"inet.common.MessageDispatcher\""
par Scenario.node[3].ipv4.up displayStringTextFormat "\"processed %p pk (%l)\""
par Scenario.node[3].ipv4.up forwardServiceRegistration true
par Scenario.node[3].ipv4.up forwardProtocolRegistration true
par Scenario.node[3].ipv4.igmp typename "\"inet.networklayer.ipv4.Igmpv2\""
par Scenario.node[3].ipv4.igmp interfaceTableModule "\"Scenario.node[3].interfaceTable\""
par Scenario.node[3].ipv4.igmp routingTableModule "\"Scenario.node[3].ipv4.routingTable\""
par Scenario.node[3].ipv4.igmp crcMode "\"declared\""
attr enum declared,computed
par Scenario.node[3].ipv4.igmp enabled true
par Scenario.node[3].ipv4.igmp robustnessVariable 2
par Scenario.node[3].ipv4.igmp queryInterval 125s
attr unit s
par Scenario.node[3].ipv4.igmp queryResponseInterval 10s
attr unit s
par Scenario.node[3].ipv4.igmp groupMembershipInterval 260s
attr unit s
par Scenario.node[3].ipv4.igmp otherQuerierPresentInterval 255s
attr unit s
par Scenario.node[3].ipv4.igmp startupQueryInterval 31.25s
attr unit s
par Scenario.node[3].ipv4.igmp startupQueryCount 2
par Scenario.node[3].ipv4.igmp lastMemberQueryInterval 1s
attr unit s
par Scenario.node[3].ipv4.igmp lastMemberQueryCount 2
par Scenario.node[3].ipv4.igmp unsolicitedReportInterval 10s
attr unit s
par Scenario.node[3].ipv4.icmp typename "\"inet.networklayer.ipv4.Icmp\""
par Scenario.node[3].ipv4.icmp interfaceTableModule "\"Scenario.node[3].interfaceTable\""
par Scenario.node[3].ipv4.icmp routingTableModule "\"Scenario.node[3].ipv4.routingTable\""
par Scenario.node[3].ipv4.icmp crcMode "\"declared\""
attr enum declared,computed
attr mutable ""
par Scenario.node[3].ipv4.icmp quoteLength 8B
attr mutable ""
attr unit B
par Scenario.node[3].ipv4.mp typename "\"inet.common.MessageDispatcher\""
par Scenario.node[3].ipv4.mp displayStringTextFormat "\"processed %p pk (%l)\""
par Scenario.node[3].ipv4.mp forwardServiceRegistration true
par Scenario.node[3].ipv4.mp forwardProtocolRegistration true
par Scenario.node[3].ipv4.ip typename "\"inet.networklayer.ipv4.Ipv4\""
par Scenario.node[3].ipv4.ip interfaceTableModule "\"Scenario.node[3].interfaceTable\""
par Scenario.node[3].ipv4.ip routingTableModule "\"Scenario.node[3].ipv4.routingTable\""
par Scenario.node[3].ipv4.ip arpModule "\"Scenario.node[3].ipv4.arp\""
par Scenario.node[3].ipv4.ip icmpModule "\"Scenario.node[3].ipv4.icmp\""
par Scenario.node[3].ipv4.ip crcMode "\"declared\""
attr enum declared,computed
par Scenario.node[3].ipv4.ip timeToLive 32
par Scenario.node[3].ipv4.ip multicastTimeToLive 32
par Scenario.node[3].ipv4.ip fragmentTimeout 60s
attr unit s
par Scenario.node[3].ipv4.ip limitedBroadcast false
par Scenario.node[3].ipv4.ip directBroadcastInterfaces "\"\""
scalar Scenario.node[3].ipv4.ip packetDropAddressResolutionFailed:count 0
attr interpolationmode none
attr recordingmode count
attr source packetDropReasonIsAddressResolutionFailed(packetDropped)
attr title "packet drop: address resolution failed, count"
scalar Scenario.node[3].ipv4.ip packetDropAddressResolutionFailed:sum(packetBytes) 0
attr interpolationmode none
attr recordingmode sum(packetBytes)
attr source packetDropReasonIsAddressResolutionFailed(packetDropped)
attr title "packet drop: address resolution failed, sum(packetBytes)"
scalar Scenario.node[3].ipv4.ip packetDropHopLimitReached:count 0
attr interpolationmode none
attr recordingmode count
attr source packetDropReasonIsHopLimitReached(packetDropped)
attr title "packet drop: hop limit reached, count"
scalar Scenario.node[3].ipv4.ip packetDropHopLimitReached:sum(packetBytes) 0
attr interpolationmode none
attr recordingmode sum(packetBytes)
attr source packetDropReasonIsHopLimitReached(packetDropped)
attr title "packet drop: hop limit reached, sum(packetBytes)"
scalar Scenario.node[3].ipv4.ip packetDropForwardingDisabled:count 0
attr interpolationmode none
attr recordingmode count
attr source packetDropReasonIsForwardingDisabled(packetDropped)
attr title "packet drop: forwarding disabled, count"
scalar Scenario.node[3].ipv4.ip packetDropForwardingDisabled:sum(packetBytes) 0
attr interpolationmode none
attr recordingmode sum(packetBytes)
attr source packetDropReasonIsForwardingDisabled(packetDropped)
attr title "packet drop: forwarding disabled, sum(packetBytes)"
scalar Scenario.node[3].ipv4.ip packetDropNoInterfaceFound:count 0
attr interpolationmode none
attr recordingmode count
attr source packetDropReasonIsNoInterfaceFound(packetDropped)
attr title "packet drop: no interface found, count"
scalar Scenario.node[3].ipv4.ip packetDropNoInterfaceFound:sum(packetBytes) 0
attr interpolationmode none
attr recordingmode sum(packetBytes)
attr source packetDropReasonIsNoInterfaceFound(packetDropped)
attr title "packet drop: no interface found, sum(packetBytes)"
scalar Scenario.node[3].ipv4.ip packetDropNoRouteFound:count 0
attr interpolationmode none
attr recordingmode count
attr source packetDropReasonIsNoRouteFound(packetDropped)
attr title "packet drop: no route found, count"
scalar Scenario.node[3].ipv4.ip packetDropNoRouteFound:sum(packetBytes) 0
attr interpolationmode none
attr recordingmode sum(packetBytes)
attr source packetDropReasonIsNoRouteFound(packetDropped)
attr title "packet drop: no route found, sum(packetBytes)"
scalar Scenario.node[3].ipv4.ip packetDropUndefined:count 0
attr interpolationmode none
attr recordingmode count
attr source packetDropReasonIsUndefined(packetDropped)
attr title "packet drop: undefined, count"
scalar Scenario.node[3].ipv4.ip packetDropUndefined:sum(packetBytes) 0
attr interpolationmode none
attr recordingmode sum(packetBytes)
attr source packetDropReasonIsUndefined(packetDropped)
attr title "packet drop: undefined, sum(packetBytes)"
par Scenario.node[3].ipv4.arp typename "\"inet.networklayer.arp.ipv4.Arp\""
par Scenario.node[3].ipv4.arp interfaceTableModule "\"Scenario.node[3].interfaceTable\""
par Scenario.node[3].ipv4.arp routingTableModule "\"Scenario.node[3].ipv4.routingTable\""
par Scenario.node[3].ipv4.arp retryTimeout 1s
attr unit s
par Scenario.node[3].ipv4.arp retryCount 3
par Scenario.node[3].ipv4.arp cacheTimeout 120s
attr unit s
par Scenario.node[3].ipv4.arp proxyArpInterfaces "\"\""
scalar Scenario.node[3].ipv4.arp arpResolutionFailed:count 0
attr recordingmode count
attr title "ARP failed resolutions, count"
scalar Scenario.node[3].ipv4.arp arpResolutionCompleted:count 0
attr recordingmode count
attr title "ARP completed resolutions, count"
scalar Scenario.node[3].ipv4.arp arpResolutionInitiated:count 0
attr recordingmode count
attr title "ARP initiated resolutions, count"
scalar Scenario.node[3].ipv4.arp arpReplySent:count 0
attr recordingmode count
attr source arpReplySent
attr title "ARP replies sent, count"
scalar Scenario.node[3].ipv4.arp arpReplySent:sum(packetBytes) 0
attr recordingmode sum(packetBytes)
attr source arpReplySent
attr title "ARP replies sent, sum(packetBytes)"
scalar Scenario.node[3].ipv4.arp arpRequestSent:count 0
attr recordingmode count
attr source arpRequestSent
attr title "ARP request sent, count"
scalar Scenario.node[3].ipv4.arp arpRequestSent:sum(packetBytes) 0
attr recordingmode sum(packetBytes)
attr source arpRequestSent
attr title "ARP request sent, sum(packetBytes)"
par Scenario.node[3].ipv4.lp typename "\"inet.common.MessageDispatcher\""
par Scenario.node[3].ipv4.lp displayStringTextFormat "\"processed %p pk (%l)\""
par Scenario.node[3].ipv4.lp forwardServiceRegistration true
par Scenario.node[3].ipv4.lp forwardProtocolRegistration true
par Scenario.node[3].ipv4 typename "\"inet.networklayer.ipv4.Ipv4NetworkLayer\""
par Scenario.node[3].ipv4 forwarding true
par Scenario.node[3].ipv4 multicastForwarding false
par Scenario.node[3].ipv4 interfaceTableModule "\"Scenario.node[3].interfaceTable\""
par Scenario.node[3].ipv4 displayStringTextFormat "\"%i\""
par Scenario.node[3].nl typename "\"inet.common.MessageDispatcher\""
par Scenario.node[3].nl displayStringTextFormat "\"processed %p pk (%l)\""
par Scenario.node[3].nl forwardServiceRegistration true
par Scenario.node[3].nl forwardProtocolRegistration true
par Scenario.node[3].udp typename "\"inet.transportlayer.udp.Udp\""
par Scenario.node[3].udp interfaceTableModule "\"Scenario.node[3].interfaceTable\""
par Scenario.node[3].udp icmpModule "\"^.ipv4.icmp\""
par Scenario.node[3].udp icmpv6Module "\"^.ipv6.icmpv6\""
par Scenario.node[3].udp crcMode "\"declared\""
attr enum disabled,declared,computed
par Scenario.node[3].udp defaultMulticastLoop true
scalar Scenario.node[3].udp packetReceived:count 10
attr interpolationmode none
attr recordingmode count
attr source packetReceived
attr title "packets received, count"
scalar Scenario.node[3].udp packetReceived:sum(packetBytes) 12080
attr interpolationmode none
attr recordingmode sum(packetBytes)
attr source packetReceived
attr title "packets received, sum(packetBytes)"
scalar Scenario.node[3].udp packetSent:count 1
attr interpolationmode none
attr recordingmode count
attr source packetSent
attr title "packets sent, count"
scalar Scenario.node[3].udp packetSent:sum(packetBytes) 1208
attr interpolationmode none
attr recordingmode sum(packetBytes)
attr source packetSent
attr title "packets sent, sum(packetBytes)"
scalar Scenario.node[3].udp passedUpPk:count 10
attr interpolationmode none
attr recordingmode count
attr source packetSentToUpper
attr title "packets passed up, count"
scalar Scenario.node[3].udp droppedPkWrongPort:count 0
attr interpolationmode none
attr recordingmode count
attr source packetDropReasonIsNoPortFound(packetDropped)
attr title "packets dropped (wrong port), count"
scalar Scenario.node[3].udp droppedPkBadChecksum:count 0
attr interpolationmode none
attr recordingmode count
attr source packetDropReasonIsIncorrectlyReceived(packetDropped)
attr title "packets dropped (checksum error), count"
par Scenario.node[3].tcp typename "\"inet.transportlayer.tcp.Tcp\""
par Scenario.node[3].tcp crcMode "\"declared\""
attr enum declared,computed
par Scenario.node[3].tcp advertisedWindow 7504
par Scenario.node[3].tcp delayedAcksEnabled false
par Scenario.node[3].tcp nagleEnabled true
par Scenario.node[3].tcp limitedTransmitEnabled false
par Scenario.node[3].tcp increasedIWEnabled false
par Scenario.node[3].tcp sackSupport false
par Scenario.node[3].tcp windowScalingSupport false
par Scenario.node[3].tcp windowScalingFactor -1
par Scenario.node[3].tcp timestampSupport false
par Scenario.node[3].tcp mss 536
par Scenario.node[3].tcp msl 120s
attr unit s
par Scenario.node[3].tcp tcpAlgorithmClass "\"TcpReno\""
attr enum TcpVegas,TcpWestwood,TcpNewReno,TcpReno,TcpTahoe,TcpNoCongestionControl
par Scenario.node[3].tcp useDataNotification false
par Scenario.node[3].tcp dupthresh 3
par Scenario.node[3].tcp initialSsthresh 4294967295
par Scenario.node[3].tcp stopOperationExtraTime 0s
attr unit s
par Scenario.node[3].tcp stopOperationTimeout 2s
attr unit s
par Scenario.node[3].tcp ecnWillingness false
par Scenario.node[3].tcp dctcpGamma 0.0625
par Scenario.node[3].tn typename "\"inet.common.MessageDispatcher\""
par Scenario.node[3].tn displayStringTextFormat "\"processed %p pk (%l)\""
par Scenario.node[3].tn forwardServiceRegistration true
par Scenario.node[3].tn forwardProtocolRegistration true
par Scenario.node[3].app[0] typename "\"org.car2x.veins.subprojects.veins_inet.VeinsInetSampleApplication\""
par Scenario.node[3].app[0] interfaceTableModule "\"Scenario.node[3].interfaceTable\""
par Scenario.node[3].app[0] interface "\"wlan0\""
par Scenario.node[3].app[0] isBlackholeAttack false
par Scenario.node[3].app[0] isDosAttack true
scalar Scenario.node[3].app[0] packetReceived:count 10
attr interpolationmode none
attr recordingmode count
attr source packetReceived
attr title "packets received, count"
scalar Scenario.node[3].app[0] packetReceived:sum(packetBytes) 12000
attr interpolationmode none
attr recordingmode sum(packetBytes)
attr source packetReceived
attr title "packets received, sum(packetBytes)"
statistic Scenario.node[3].app[0] rcvdPkLifetime:stats
field count 10
field mean 0.0029748450014
field stddev 0.0020577795068411
field min 0
field max 0.005845589419
field sum 0.029748450014
field sqrsum 0.00012660713631252
attr interpolationmode none
attr recordingmode stats
attr source dataAge(packetReceived)
attr title "received packet lifetime"
attr unit s
scalar Scenario.node[3].app[0] packetSent:count 1
attr interpolationmode none
attr recordingmode count
attr source packetSent
attr title "packets sent, count"
scalar Scenario.node[3].app[0] packetSent:sum(packetBytes) 1200
attr interpolationmode none
attr recordingmode sum(packetBytes)
attr source packetSent
attr title "packets sent, sum(packetBytes)"
par Scenario.node[3].at typename "\"inet.common.MessageDispatcher\""
par Scenario.node[3].at displayStringTextFormat "\"processed %p pk (%l)\""
par Scenario.node[3].at forwardServiceRegistration true
par Scenario.node[3].at forwardProtocolRegistration true
par Scenario.node[3] typename "\"org.car2x.veins.subprojects.veins_inet.VeinsInetCar\""
par Scenario.node[3] hasStatus false
par Scenario.node[3] osgModel "\"\""
par Scenario.node[3] osgModelColor "\"\""
par Scenario.node[3] canvasImage "\"\""
par Scenario.node[3] canvasImageColor "\"\""
par Scenario.node[3] recordPcap false
par Scenario.node[3] numPcapRecorders 0
par Scenario.node[3] numLoInterfaces 1
par Scenario.node[3] numWlanInterfaces 1
par Scenario.node[3] numEthInterfaces 0
par Scenario.node[3] numPppInterfaces 0
par Scenario.node[3] numTunInterfaces 0
par Scenario.node[3] numVirtInterfaces 0
par Scenario.node[3] fcsMode "\"declared\""
attr enum declared,computed
par Scenario.node[3] hasIpv4 true
par Scenario.node[3] hasIpv6 false
par Scenario.node[3] hasGn false
par Scenario.node[3] forwarding true
par Scenario.node[3] multicastForwarding false
par Scenario.node[3] hasUdp true
par Scenario.node[3] hasTcp true
par Scenario.node[3] hasSctp false
par Scenario.node[3] numApps 1
par Scenario typename "\"org.car2x.veins.subprojects.veins_inet.examples.veins_inet.Scenario\""
par Scenario useOsg false

