version 3
run plain-0-20240422-15:59:38-4804
attr configname plain
attr datetime 20240422-15:59:38
attr datetimef 20240422-155938
attr experiment plain
attr inifile omnetpp.ini
attr iterationvars ""
attr iterationvarsd ""
attr iterationvarsf ""
attr measurement ""
attr network Scenario
attr processid 4804
attr repetition 0
attr replication #0
attr resultdir results
attr runnumber 0
attr seedset 0
config image-path ../../images:../../../inet4.4/images:../../../veins-veins-5.2/images
config network Scenario
config sim-time-limit 60s
config debug-on-errors true
config cmdenv-express-mode true
config image-path ../../../../images
config *.node[*].numApps 1
config *.node[*].app[0].typename org.car2x.veins.subprojects.veins_inet.VeinsInetSampleApplication
config *.node[*].app[0].interface "\"wlan0\""
config *.node[*].wlan[0].opMode "\"p\""
config *.node[*].wlan[0].radio.typename Ieee80211DimensionalRadio
config *.node[*].wlan[0].radio.bandName "\"5.9 GHz\""
config *.node[*].wlan[0].radio.channelNumber 3
config *.node[*].wlan[0].radio.transmitter.power 20mW
config *.node[*].wlan[0].radio.bandwidth "10 MHz"
config *.node[*].wlan[*].radio.antenna.mobility.typename AttachedMobility
config *.node[*].wlan[*].radio.antenna.mobility.mobilityModule "\"^.^.^.^.mobility\""
config *.node[*].wlan[*].radio.antenna.mobility.offsetX -2.5m
config *.node[*].wlan[*].radio.antenna.mobility.offsetZ 1.5m
config *.node[*].wlan[*].radio.antenna.mobility.constraintAreaMinX 0m
config *.node[*].wlan[*].radio.antenna.mobility.constraintAreaMaxX 0m
config *.node[*].wlan[*].radio.antenna.mobility.constraintAreaMinY 0m
config *.node[*].wlan[*].radio.antenna.mobility.constraintAreaMaxY 0m
config *.node[*].wlan[*].radio.antenna.mobility.constraintAreaMinZ 0m
config *.node[*].wlan[*].radio.antenna.mobility.constraintAreaMaxZ 0m
config *.node[*].ipv4.configurator.typename HostAutoConfigurator
config *.node[*].ipv4.configurator.interfaces "\"wlan0\""
config *.node[*].ipv4.configurator.mcastGroups "\"224.0.0.1\""
config *.node[*].mobility.typename VeinsInetMobility
config *.manager.updateInterval 0.1s
config *.manager.host "\"localhost\""
config *.manager.port 9999
config *.manager.autoShutdown true
config *.manager.launchConfig "xmldoc(\"square.launchd.xml\")"
config *.manager.moduleType "\"org.car2x.veins.subprojects.veins_inet.VeinsInetCar\""
config *.physicalEnvironment.config "xmldoc(\"obstacles.xml\")"
config *.radioMedium.obstacleLoss.typename IdealObstacleLoss
config **.vector-recording true

vector 0 Scenario.node[0].wlan[0].mac.dcf frameSequenceActive:vector ETV
attr autoWarmupFilter false
attr interpolationmode sample-hold
attr recordingmode vector
attr source warmup(count(frameSequenceStarted)-count(frameSequenceFinished))
attr title "frame sequence active"
vector 1 Scenario.node[0].wlan[0].mac.dcf.channelAccess.inProgressFrames queueLength:vector ETV
attr autoWarmupFilter false
attr interpolationmode sample-hold
attr recordingmode vector
attr source "warmup(count(packetEnqueued) - count(packetDequeued))"
attr title "queue length"
vector 2 Scenario.node[0].wlan[0].mac.dcf.channelAccess.contention backoffActive:vector ETV
attr autoWarmupFilter false
attr interpolationmode sample-hold
attr recordingmode vector
attr source warmup(count(backoffStarted)-count(backoffStopped))
attr title "backoff active"
vector 3 Scenario.node[0].udp passedUpPk:vector(count) ETV
attr interpolationmode none
attr recordingmode vector(count)
attr source packetSentToUpper
attr title "packets passed up, count"
vector 4 Scenario.node[0].udp droppedPkWrongPort:vector(count) ETV
attr interpolationmode none
attr recordingmode vector(count)
attr source packetDropReasonIsNoPortFound(packetDropped)
attr title "packets dropped (wrong port), count"
vector 5 Scenario.node[0].udp droppedPkBadChecksum:vector(count) ETV
attr interpolationmode none
attr recordingmode vector(count)
attr source packetDropReasonIsIncorrectlyReceived(packetDropped)
attr title "packets dropped (checksum error), count"
vector 6 Scenario.node[0].wlan[0].radio radioMode:vector ETV
attr interpolationmode sample-hold
attr recordingmode vector
attr source radioModeChanged
attr title "Radio mode"
vector 7 Scenario.node[0].wlan[0].radio radioChannel:vector ETV
attr interpolationmode sample-hold
attr recordingmode vector
attr source radioChannelChanged
attr title "Radio channel"
vector 8 Scenario.node[0].wlan[0].radio receptionState:vector ETV
attr interpolationmode sample-hold
attr recordingmode vector
attr source receptionStateChanged
attr title "Radio reception state"
vector 9 Scenario.node[0].wlan[0].mac.dcf.channelAccess.contention stateChanged:vector ETV
attr enum IDLE,DEFER,IFS_AND_BACKOFF
attr interpolationmode none
attr recordingmode vector
attr title "contention state changed"
attr type enum
vector 10 Scenario.node[0].wlan[0].mac.dcf.recoveryProcedure contentionWindowChanged:vector ETV
attr interpolationmode sample-hold
attr recordingmode vector
attr title "contention window"
vector 11 Scenario.node[1].wlan[0].mac.dcf frameSequenceActive:vector ETV
attr autoWarmupFilter false
attr interpolationmode sample-hold
attr recordingmode vector
attr source warmup(count(frameSequenceStarted)-count(frameSequenceFinished))
attr title "frame sequence active"
vector 12 Scenario.node[1].wlan[0].mac.dcf.channelAccess.inProgressFrames queueLength:vector ETV
attr autoWarmupFilter false
attr interpolationmode sample-hold
attr recordingmode vector
attr source "warmup(count(packetEnqueued) - count(packetDequeued))"
attr title "queue length"
vector 13 Scenario.node[1].wlan[0].mac.dcf.channelAccess.contention backoffActive:vector ETV
attr autoWarmupFilter false
attr interpolationmode sample-hold
attr recordingmode vector
attr source warmup(count(backoffStarted)-count(backoffStopped))
attr title "backoff active"
vector 14 Scenario.node[1].udp passedUpPk:vector(count) ETV
attr interpolationmode none
attr recordingmode vector(count)
attr source packetSentToUpper
attr title "packets passed up, count"
vector 15 Scenario.node[1].udp droppedPkWrongPort:vector(count) ETV
attr interpolationmode none
attr recordingmode vector(count)
attr source packetDropReasonIsNoPortFound(packetDropped)
attr title "packets dropped (wrong port), count"
vector 16 Scenario.node[1].udp droppedPkBadChecksum:vector(count) ETV
attr interpolationmode none
attr recordingmode vector(count)
attr source packetDropReasonIsIncorrectlyReceived(packetDropped)
attr title "packets dropped (checksum error), count"
vector 17 Scenario.node[1].wlan[0].radio radioMode:vector ETV
attr interpolationmode sample-hold
attr recordingmode vector
attr source radioModeChanged
attr title "Radio mode"
vector 18 Scenario.node[1].wlan[0].radio radioChannel:vector ETV
attr interpolationmode sample-hold
attr recordingmode vector
attr source radioChannelChanged
attr title "Radio channel"
vector 19 Scenario.node[1].wlan[0].radio receptionState:vector ETV
attr interpolationmode sample-hold
attr recordingmode vector
attr source receptionStateChanged
attr title "Radio reception state"
vector 20 Scenario.node[1].wlan[0].mac.dcf.channelAccess.contention stateChanged:vector ETV
attr enum IDLE,DEFER,IFS_AND_BACKOFF
attr interpolationmode none
attr recordingmode vector
attr title "contention state changed"
attr type enum
vector 21 Scenario.node[1].wlan[0].mac.dcf.recoveryProcedure contentionWindowChanged:vector ETV
attr interpolationmode sample-hold
attr recordingmode vector
attr title "contention window"
vector 22 Scenario.node[2].wlan[0].mac.dcf frameSequenceActive:vector ETV
attr autoWarmupFilter false
attr interpolationmode sample-hold
attr recordingmode vector
attr source warmup(count(frameSequenceStarted)-count(frameSequenceFinished))
attr title "frame sequence active"
vector 23 Scenario.node[2].wlan[0].mac.dcf.channelAccess.inProgressFrames queueLength:vector ETV
attr autoWarmupFilter false
attr interpolationmode sample-hold
attr recordingmode vector
attr source "warmup(count(packetEnqueued) - count(packetDequeued))"
attr title "queue length"
vector 24 Scenario.node[2].wlan[0].mac.dcf.channelAccess.contention backoffActive:vector ETV
attr autoWarmupFilter false
attr interpolationmode sample-hold
attr recordingmode vector
attr source warmup(count(backoffStarted)-count(backoffStopped))
attr title "backoff active"
vector 25 Scenario.node[2].udp passedUpPk:vector(count) ETV
attr interpolationmode none
attr recordingmode vector(count)
attr source packetSentToUpper
attr title "packets passed up, count"
vector 26 Scenario.node[2].udp droppedPkWrongPort:vector(count) ETV
attr interpolationmode none
attr recordingmode vector(count)
attr source packetDropReasonIsNoPortFound(packetDropped)
attr title "packets dropped (wrong port), count"
vector 27 Scenario.node[2].udp droppedPkBadChecksum:vector(count) ETV
attr interpolationmode none
attr recordingmode vector(count)
attr source packetDropReasonIsIncorrectlyReceived(packetDropped)
attr title "packets dropped (checksum error), count"
vector 28 Scenario.node[2].wlan[0].radio radioMode:vector ETV
attr interpolationmode sample-hold
attr recordingmode vector
attr source radioModeChanged
attr title "Radio mode"
vector 29 Scenario.node[2].wlan[0].radio radioChannel:vector ETV
attr interpolationmode sample-hold
attr recordingmode vector
attr source radioChannelChanged
attr title "Radio channel"
vector 30 Scenario.node[2].wlan[0].radio receptionState:vector ETV
attr interpolationmode sample-hold
attr recordingmode vector
attr source receptionStateChanged
attr title "Radio reception state"
vector 31 Scenario.node[2].wlan[0].mac.dcf.channelAccess.contention stateChanged:vector ETV
attr enum IDLE,DEFER,IFS_AND_BACKOFF
attr interpolationmode none
attr recordingmode vector
attr title "contention state changed"
attr type enum
vector 32 Scenario.node[2].wlan[0].mac.dcf.recoveryProcedure contentionWindowChanged:vector ETV
attr interpolationmode sample-hold
attr recordingmode vector
attr title "contention window"
vector 33 Scenario.node[3].wlan[0].mac.dcf frameSequenceActive:vector ETV
attr autoWarmupFilter false
attr interpolationmode sample-hold
attr recordingmode vector
attr source warmup(count(frameSequenceStarted)-count(frameSequenceFinished))
attr title "frame sequence active"
vector 34 Scenario.node[3].wlan[0].mac.dcf.channelAccess.inProgressFrames queueLength:vector ETV
attr autoWarmupFilter false
attr interpolationmode sample-hold
attr recordingmode vector
attr source "warmup(count(packetEnqueued) - count(packetDequeued))"
attr title "queue length"
vector 35 Scenario.node[3].wlan[0].mac.dcf.channelAccess.contention backoffActive:vector ETV
attr autoWarmupFilter false
attr interpolationmode sample-hold
attr recordingmode vector
attr source warmup(count(backoffStarted)-count(backoffStopped))
attr title "backoff active"
vector 36 Scenario.node[3].udp passedUpPk:vector(count) ETV
attr interpolationmode none
attr recordingmode vector(count)
attr source packetSentToUpper
attr title "packets passed up, count"
vector 37 Scenario.node[3].udp droppedPkWrongPort:vector(count) ETV
attr interpolationmode none
attr recordingmode vector(count)
attr source packetDropReasonIsNoPortFound(packetDropped)
attr title "packets dropped (wrong port), count"
vector 38 Scenario.node[3].udp droppedPkBadChecksum:vector(count) ETV
attr interpolationmode none
attr recordingmode vector(count)
attr source packetDropReasonIsIncorrectlyReceived(packetDropped)
attr title "packets dropped (checksum error), count"
vector 39 Scenario.node[3].wlan[0].radio radioMode:vector ETV
attr interpolationmode sample-hold
attr recordingmode vector
attr source radioModeChanged
attr title "Radio mode"
vector 40 Scenario.node[3].wlan[0].radio radioChannel:vector ETV
attr interpolationmode sample-hold
attr recordingmode vector
attr source radioChannelChanged
attr title "Radio channel"
vector 41 Scenario.node[3].wlan[0].radio receptionState:vector ETV
attr interpolationmode sample-hold
attr recordingmode vector
attr source receptionStateChanged
attr title "Radio reception state"
vector 42 Scenario.node[3].wlan[0].mac.dcf.channelAccess.contention stateChanged:vector ETV
attr enum IDLE,DEFER,IFS_AND_BACKOFF
attr interpolationmode none
attr recordingmode vector
attr title "contention state changed"
attr type enum
vector 43 Scenario.node[3].wlan[0].mac.dcf.recoveryProcedure contentionWindowChanged:vector ETV
attr interpolationmode sample-hold
attr recordingmode vector
attr title "contention window"
vector 44 Scenario.node[0].app[0] packetSent:vector(packetBytes) ETV
attr interpolationmode none
attr recordingmode vector(packetBytes)
attr source packetSent
attr title "packets sent, packetBytes"
vector 45 Scenario.node[0].udp packetSent:vector(packetBytes) ETV
attr interpolationmode none
attr recordingmode vector(packetBytes)
attr source packetSent
attr title "packets sent, packetBytes"
vector 46 Scenario.node[0].lo[0].lo rcvdPkFromHl:vector(packetBytes) ETV
attr interpolationmode none
attr recordingmode vector(packetBytes)
attr source packetReceivedFromUpper
attr title "packets received from higher layer, packetBytes"
vector 47 Scenario.node[0].lo[0].lo passedUpPk:vector(packetBytes) ETV
attr interpolationmode none
attr recordingmode vector(packetBytes)
attr source packetSentToUpper
attr title "packets passed to higher layer, packetBytes"
vector 48 Scenario.node[0].wlan[0].mac packetReceivedFromUpper:vector(packetBytes) ETV
attr interpolationmode none
attr recordingmode vector(packetBytes)
attr title "packets received from upper layer, packetBytes"
vector 49 Scenario.node[0].wlan[0].mac.dcf.channelAccess.pendingQueue incomingPacketLengths:vector ETV
attr interpolationmode none
attr recordingmode vector
attr source packetLength(packetPushStarted)
attr title "incoming packet lengths"
attr unit b
vector 50 Scenario.node[0].wlan[0].mac.dcf.channelAccess.pendingQueue incomingDataRate:vector ETV
attr interpolationmode linear
attr recordingmode vector
attr source throughput(packetPushStarted)
attr title "incoming datarate"
attr unit bps
vector 51 Scenario.node[0].wlan[0].mac.dcf.channelAccess.pendingQueue queueLength:vector ETV
attr autoWarmupFilter false
attr interpolationmode sample-hold
attr recordingmode vector
attr source "warmup(atomic(constant0(packetPushEnded) + count(packetPushStarted) - count(packetPulled) - count(packetRemoved) - count(packetDropped)))"
attr title "queue length"
attr unit pk
vector 52 Scenario.node[0].wlan[0].mac.dcf.channelAccess.pendingQueue queueBitLength:vector ETV
attr autoWarmupFilter false
attr interpolationmode sample-hold
attr recordingmode vector
attr source "warmup(atomic(constant0(packetPushEnded) + sum(packetLength(packetPushStarted)) - sum(packetLength(packetPulled)) - sum(packetLength(packetRemoved)) - sum(packetLength(packetDropped))))"
attr title "queue bit length"
attr unit b
vector 53 Scenario.node[0].wlan[0].mac.dcf.channelAccess.contention backoffPeriodGenerated:vector ETV
attr interpolationmode none
attr recordingmode vector
attr title "backoff periods"
vector 54 Scenario.node[0].udp packetReceived:vector(packetBytes) ETV
attr interpolationmode none
attr recordingmode vector(packetBytes)
attr source packetReceived
attr title "packets received, packetBytes"
vector 55 Scenario.node[0].app[0] packetReceived:vector(packetBytes) ETV
attr interpolationmode none
attr recordingmode vector(packetBytes)
attr source packetReceived
attr title "packets received, packetBytes"
vector 56 Scenario.node[0].app[0] throughput:vector ETV
attr recordingmode vector
attr source throughput(packetReceived)
attr title throughput
attr unit bps
vector 57 Scenario.node[0].app[0] rcvdPkLifetime:vector ETV
attr interpolationmode none
attr recordingmode vector
attr source dataAge(packetReceived)
attr title "received packet lifetime"
attr unit s
vector 58 Scenario.node[0].wlan[0].mac.dcf.channelAccess.pendingQueue queueingTime:vector ETV
attr interpolationmode none
attr recordingmode vector
attr source queueingTime(packetPulled)
attr title "queueing times"
attr unit s
vector 59 Scenario.node[0].wlan[0].mac.dcf.channelAccess.pendingQueue outgoingPacketLengths:vector ETV
attr interpolationmode none
attr recordingmode vector
attr source packetLength(packetPulled)
attr title "outgoing packet lengths"
attr unit b
vector 60 Scenario.node[0].wlan[0].mac.dcf.channelAccess.pendingQueue outgoingDataRate:vector ETV
attr interpolationmode linear
attr recordingmode vector
attr source throughput(packetPulled)
attr title "outgoing datarate"
attr unit bps
vector 61 Scenario.node[0].wlan[0].mac.dcf datarateSelected:vector ETV
attr interpolationmode none
attr recordingmode vector
attr title "datarates selected"
vector 62 Scenario.node[0].wlan[0].mac packetSentToLower:vector(packetBytes) ETV
attr interpolationmode none
attr recordingmode vector(packetBytes)
attr title "packets sent to lower layer, packetBytes"
vector 63 Scenario.node[0].wlan[0].radio transmissionState:vector ETV
attr interpolationmode sample-hold
attr recordingmode vector
attr source transmissionStateChanged
attr title "Radio transmission state"
vector 64 Scenario.node[0].wlan[0].mac.dcf packetSentToPeer:vector(packetBytes) ETV
attr interpolationmode none
attr recordingmode vector(packetBytes)
attr title "packets sent, packetBytes"
vector 65 Scenario.node[0].wlan[0].mac.dcf packetSentToPeerMulticast:vector(packetBytes) ETV
attr interpolationmode none
attr recordingmode vector(packetBytes)
attr source ieee80211Multicast(packetSentToPeer)
attr title "packets sent: multicast, packetBytes"
vector 66 Scenario.node[0].wlan[0].mac.dcf packetSentToPeerWithoutRetry:vector(packetBytes) ETV
attr interpolationmode none
attr recordingmode vector(packetBytes)
attr source ieee80211NotRetry(packetSentToPeer)
attr title "packets sent: without retry, packetBytes"
vector 67 Scenario.node[0].wlan[0].mac.dcf.channelAccess.inProgressFrames queueingTime:vector ETV
attr interpolationmode none
attr recordingmode vector
attr source queueingTime(packetDequeued)
attr title "queueing times"
vector 68 Scenario.node[1].wlan[0].mac packetReceivedFromLower:vector(packetBytes) ETV
attr interpolationmode none
attr recordingmode vector(packetBytes)
attr title "packets received from lower layer, packetBytes"
vector 69 Scenario.node[1].wlan[0].mac.dcf packetReceivedFromPeer:vector(packetBytes) ETV
attr interpolationmode none
attr recordingmode vector(packetBytes)
attr title "packets received, packetBytes"
vector 70 Scenario.node[1].wlan[0].mac.dcf packetReceivedFromPeerMulticast:vector(packetBytes) ETV
attr interpolationmode none
attr recordingmode vector(packetBytes)
attr source ieee80211Multicast(packetReceivedFromPeer)
attr title "packets received: multicast, packetBytes"
vector 71 Scenario.node[1].wlan[0].mac.dcf packetReceivedFromPeerWithoutRetry:vector(packetBytes) ETV
attr interpolationmode none
attr recordingmode vector(packetBytes)
attr source ieee80211NotRetry(packetReceivedFromPeer)
attr title "packets received: without retry, packetBytes"
vector 72 Scenario.node[1].wlan[0].mac packetSentToUpper:vector(packetBytes) ETV
attr interpolationmode none
attr recordingmode vector(packetBytes)
attr title "packets sent to upper layer, packetBytes"
vector 73 Scenario.node[1].udp packetReceived:vector(packetBytes) ETV
attr interpolationmode none
attr recordingmode vector(packetBytes)
attr source packetReceived
attr title "packets received, packetBytes"
vector 74 Scenario.node[1].app[0] packetReceived:vector(packetBytes) ETV
attr interpolationmode none
attr recordingmode vector(packetBytes)
attr source packetReceived
attr title "packets received, packetBytes"
vector 75 Scenario.node[1].app[0] throughput:vector ETV
attr recordingmode vector
attr source throughput(packetReceived)
attr title throughput
attr unit bps
vector 76 Scenario.node[1].app[0] rcvdPkLifetime:vector ETV
attr interpolationmode none
attr recordingmode vector
attr source dataAge(packetReceived)
attr title "received packet lifetime"
attr unit s
vector 77 Scenario.node[1].app[0] packetSent:vector(packetBytes) ETV
attr interpolationmode none
attr recordingmode vector(packetBytes)
attr source packetSent
attr title "packets sent, packetBytes"
vector 78 Scenario.node[1].udp packetSent:vector(packetBytes) ETV
attr interpolationmode none
attr recordingmode vector(packetBytes)
attr source packetSent
attr title "packets sent, packetBytes"
vector 79 Scenario.node[1].lo[0].lo rcvdPkFromHl:vector(packetBytes) ETV
attr interpolationmode none
attr recordingmode vector(packetBytes)
attr source packetReceivedFromUpper
attr title "packets received from higher layer, packetBytes"
vector 80 Scenario.node[1].lo[0].lo passedUpPk:vector(packetBytes) ETV
attr interpolationmode none
attr recordingmode vector(packetBytes)
attr source packetSentToUpper
attr title "packets passed to higher layer, packetBytes"
vector 81 Scenario.node[1].wlan[0].mac packetReceivedFromUpper:vector(packetBytes) ETV
attr interpolationmode none
attr recordingmode vector(packetBytes)
attr title "packets received from upper layer, packetBytes"
vector 82 Scenario.node[1].wlan[0].mac.dcf.channelAccess.pendingQueue incomingPacketLengths:vector ETV
attr interpolationmode none
attr recordingmode vector
attr source packetLength(packetPushStarted)
attr title "incoming packet lengths"
attr unit b
vector 83 Scenario.node[1].wlan[0].mac.dcf.channelAccess.pendingQueue incomingDataRate:vector ETV
attr interpolationmode linear
attr recordingmode vector
attr source throughput(packetPushStarted)
attr title "incoming datarate"
attr unit bps
vector 84 Scenario.node[1].wlan[0].mac.dcf.channelAccess.pendingQueue queueLength:vector ETV
attr autoWarmupFilter false
attr interpolationmode sample-hold
attr recordingmode vector
attr source "warmup(atomic(constant0(packetPushEnded) + count(packetPushStarted) - count(packetPulled) - count(packetRemoved) - count(packetDropped)))"
attr title "queue length"
attr unit pk
vector 85 Scenario.node[1].wlan[0].mac.dcf.channelAccess.pendingQueue queueBitLength:vector ETV
attr autoWarmupFilter false
attr interpolationmode sample-hold
attr recordingmode vector
attr source "warmup(atomic(constant0(packetPushEnded) + sum(packetLength(packetPushStarted)) - sum(packetLength(packetPulled)) - sum(packetLength(packetRemoved)) - sum(packetLength(packetDropped))))"
attr title "queue bit length"
attr unit b
vector 86 Scenario.node[1].wlan[0].mac.dcf.channelAccess.contention backoffPeriodGenerated:vector ETV
attr interpolationmode none
attr recordingmode vector
attr title "backoff periods"
vector 87 Scenario.node[1].wlan[0].mac.dcf.channelAccess.pendingQueue queueingTime:vector ETV
attr interpolationmode none
attr recordingmode vector
attr source queueingTime(packetPulled)
attr title "queueing times"
attr unit s
vector 88 Scenario.node[1].wlan[0].mac.dcf.channelAccess.pendingQueue outgoingPacketLengths:vector ETV
attr interpolationmode none
attr recordingmode vector
attr source packetLength(packetPulled)
attr title "outgoing packet lengths"
attr unit b
vector 89 Scenario.node[1].wlan[0].mac.dcf.channelAccess.pendingQueue outgoingDataRate:vector ETV
attr interpolationmode linear
attr recordingmode vector
attr source throughput(packetPulled)
attr title "outgoing datarate"
attr unit bps
vector 90 Scenario.node[1].wlan[0].mac.dcf datarateSelected:vector ETV
attr interpolationmode none
attr recordingmode vector
attr title "datarates selected"
vector 91 Scenario.node[1].wlan[0].mac packetSentToLower:vector(packetBytes) ETV
attr interpolationmode none
attr recordingmode vector(packetBytes)
attr title "packets sent to lower layer, packetBytes"
vector 92 Scenario.node[1].wlan[0].radio transmissionState:vector ETV
attr interpolationmode sample-hold
attr recordingmode vector
attr source transmissionStateChanged
attr title "Radio transmission state"
vector 93 Scenario.node[1].wlan[0].mac.dcf packetSentToPeer:vector(packetBytes) ETV
attr interpolationmode none
attr recordingmode vector(packetBytes)
attr title "packets sent, packetBytes"
vector 94 Scenario.node[1].wlan[0].mac.dcf packetSentToPeerMulticast:vector(packetBytes) ETV
attr interpolationmode none
attr recordingmode vector(packetBytes)
attr source ieee80211Multicast(packetSentToPeer)
attr title "packets sent: multicast, packetBytes"
vector 95 Scenario.node[1].wlan[0].mac.dcf packetSentToPeerWithoutRetry:vector(packetBytes) ETV
attr interpolationmode none
attr recordingmode vector(packetBytes)
attr source ieee80211NotRetry(packetSentToPeer)
attr title "packets sent: without retry, packetBytes"
vector 96 Scenario.node[1].wlan[0].mac.dcf.channelAccess.inProgressFrames queueingTime:vector ETV
attr interpolationmode none
attr recordingmode vector
attr source queueingTime(packetDequeued)
attr title "queueing times"
vector 97 Scenario.node[0].wlan[0].mac packetReceivedFromLower:vector(packetBytes) ETV
attr interpolationmode none
attr recordingmode vector(packetBytes)
attr title "packets received from lower layer, packetBytes"
vector 98 Scenario.node[0].wlan[0].mac.dcf packetReceivedFromPeer:vector(packetBytes) ETV
attr interpolationmode none
attr recordingmode vector(packetBytes)
attr title "packets received, packetBytes"
vector 99 Scenario.node[0].wlan[0].mac.dcf packetReceivedFromPeerMulticast:vector(packetBytes) ETV
attr interpolationmode none
attr recordingmode vector(packetBytes)
attr source ieee80211Multicast(packetReceivedFromPeer)
attr title "packets received: multicast, packetBytes"
vector 100 Scenario.node[0].wlan[0].mac.dcf packetReceivedFromPeerWithoutRetry:vector(packetBytes) ETV
attr interpolationmode none
attr recordingmode vector(packetBytes)
attr source ieee80211NotRetry(packetReceivedFromPeer)
attr title "packets received: without retry, packetBytes"
vector 101 Scenario.node[0].wlan[0].mac packetSentToUpper:vector(packetBytes) ETV
attr interpolationmode none
attr recordingmode vector(packetBytes)
attr title "packets sent to upper layer, packetBytes"
vector 102 Scenario.node[2].wlan[0].mac packetReceivedFromLower:vector(packetBytes) ETV
attr interpolationmode none
attr recordingmode vector(packetBytes)
attr title "packets received from lower layer, packetBytes"
vector 103 Scenario.node[2].wlan[0].mac.dcf packetReceivedFromPeer:vector(packetBytes) ETV
attr interpolationmode none
attr recordingmode vector(packetBytes)
attr title "packets received, packetBytes"
vector 104 Scenario.node[2].wlan[0].mac.dcf packetReceivedFromPeerMulticast:vector(packetBytes) ETV
attr interpolationmode none
attr recordingmode vector(packetBytes)
attr source ieee80211Multicast(packetReceivedFromPeer)
attr title "packets received: multicast, packetBytes"
vector 105 Scenario.node[2].wlan[0].mac.dcf packetReceivedFromPeerWithoutRetry:vector(packetBytes) ETV
attr interpolationmode none
attr recordingmode vector(packetBytes)
attr source ieee80211NotRetry(packetReceivedFromPeer)
attr title "packets received: without retry, packetBytes"
vector 106 Scenario.node[2].wlan[0].mac packetSentToUpper:vector(packetBytes) ETV
attr interpolationmode none
attr recordingmode vector(packetBytes)
attr title "packets sent to upper layer, packetBytes"
vector 107 Scenario.node[2].udp packetReceived:vector(packetBytes) ETV
attr interpolationmode none
attr recordingmode vector(packetBytes)
attr source packetReceived
attr title "packets received, packetBytes"
vector 108 Scenario.node[2].app[0] packetReceived:vector(packetBytes) ETV
attr interpolationmode none
attr recordingmode vector(packetBytes)
attr source packetReceived
attr title "packets received, packetBytes"
vector 109 Scenario.node[2].app[0] throughput:vector ETV
attr recordingmode vector
attr source throughput(packetReceived)
attr title throughput
attr unit bps
vector 110 Scenario.node[2].app[0] rcvdPkLifetime:vector ETV
attr interpolationmode none
attr recordingmode vector
attr source dataAge(packetReceived)
attr title "received packet lifetime"
attr unit s
vector 111 Scenario.node[2].app[0] packetSent:vector(packetBytes) ETV
attr interpolationmode none
attr recordingmode vector(packetBytes)
attr source packetSent
attr title "packets sent, packetBytes"
vector 112 Scenario.node[2].udp packetSent:vector(packetBytes) ETV
attr interpolationmode none
attr recordingmode vector(packetBytes)
attr source packetSent
attr title "packets sent, packetBytes"
vector 113 Scenario.node[2].lo[0].lo rcvdPkFromHl:vector(packetBytes) ETV
attr interpolationmode none
attr recordingmode vector(packetBytes)
attr source packetReceivedFromUpper
attr title "packets received from higher layer, packetBytes"
vector 114 Scenario.node[2].lo[0].lo passedUpPk:vector(packetBytes) ETV
attr interpolationmode none
attr recordingmode vector(packetBytes)
attr source packetSentToUpper
attr title "packets passed to higher layer, packetBytes"
vector 115 Scenario.node[2].wlan[0].mac packetReceivedFromUpper:vector(packetBytes) ETV
attr interpolationmode none
attr recordingmode vector(packetBytes)
attr title "packets received from upper layer, packetBytes"
vector 116 Scenario.node[2].wlan[0].mac.dcf.channelAccess.pendingQueue incomingPacketLengths:vector ETV
attr interpolationmode none
attr recordingmode vector
attr source packetLength(packetPushStarted)
attr title "incoming packet lengths"
attr unit b
vector 117 Scenario.node[2].wlan[0].mac.dcf.channelAccess.pendingQueue incomingDataRate:vector ETV
attr interpolationmode linear
attr recordingmode vector
attr source throughput(packetPushStarted)
attr title "incoming datarate"
attr unit bps
vector 118 Scenario.node[2].wlan[0].mac.dcf.channelAccess.pendingQueue queueLength:vector ETV
attr autoWarmupFilter false
attr interpolationmode sample-hold
attr recordingmode vector
attr source "warmup(atomic(constant0(packetPushEnded) + count(packetPushStarted) - count(packetPulled) - count(packetRemoved) - count(packetDropped)))"
attr title "queue length"
attr unit pk
vector 119 Scenario.node[2].wlan[0].mac.dcf.channelAccess.pendingQueue queueBitLength:vector ETV
attr autoWarmupFilter false
attr interpolationmode sample-hold
attr recordingmode vector
attr source "warmup(atomic(constant0(packetPushEnded) + sum(packetLength(packetPushStarted)) - sum(packetLength(packetPulled)) - sum(packetLength(packetRemoved)) - sum(packetLength(packetDropped))))"
attr title "queue bit length"
attr unit b
vector 120 Scenario.node[2].wlan[0].mac.dcf.channelAccess.contention backoffPeriodGenerated:vector ETV
attr interpolationmode none
attr recordingmode vector
attr title "backoff periods"
vector 121 Scenario.node[2].wlan[0].mac.dcf.channelAccess.pendingQueue queueingTime:vector ETV
attr interpolationmode none
attr recordingmode vector
attr source queueingTime(packetPulled)
attr title "queueing times"
attr unit s
vector 122 Scenario.node[2].wlan[0].mac.dcf.channelAccess.pendingQueue outgoingPacketLengths:vector ETV
attr interpolationmode none
attr recordingmode vector
attr source packetLength(packetPulled)
attr title "outgoing packet lengths"
attr unit b
vector 123 Scenario.node[2].wlan[0].mac.dcf.channelAccess.pendingQueue outgoingDataRate:vector ETV
attr interpolationmode linear
attr recordingmode vector
attr source throughput(packetPulled)
attr title "outgoing datarate"
attr unit bps
vector 124 Scenario.node[2].wlan[0].mac.dcf datarateSelected:vector ETV
attr interpolationmode none
attr recordingmode vector
attr title "datarates selected"
vector 125 Scenario.node[2].wlan[0].mac packetSentToLower:vector(packetBytes) ETV
attr interpolationmode none
attr recordingmode vector(packetBytes)
attr title "packets sent to lower layer, packetBytes"
vector 126 Scenario.node[2].wlan[0].radio transmissionState:vector ETV
attr interpolationmode sample-hold
attr recordingmode vector
attr source transmissionStateChanged
attr title "Radio transmission state"
vector 127 Scenario.node[1].wlan[0].mac packetDrop:vector(packetBytes) ETV
attr interpolationmode none
attr recordingmode vector(packetBytes)
attr source packetDropped
attr title "packet drops, packetBytes"
vector 128 Scenario.node[1].wlan[0].mac packetDropIncorrectlyReceived:vector(packetBytes) ETV
attr interpolationmode none
attr recordingmode vector(packetBytes)
attr source packetDropReasonIsIncorrectlyReceived(packetDropped)
attr title "packet drops: incorrectly received, packetBytes"
vector 129 Scenario.node[2].wlan[0].mac.dcf packetSentToPeer:vector(packetBytes) ETV
attr interpolationmode none
attr recordingmode vector(packetBytes)
attr title "packets sent, packetBytes"
vector 130 Scenario.node[2].wlan[0].mac.dcf packetSentToPeerMulticast:vector(packetBytes) ETV
attr interpolationmode none
attr recordingmode vector(packetBytes)
attr source ieee80211Multicast(packetSentToPeer)
attr title "packets sent: multicast, packetBytes"
vector 131 Scenario.node[2].wlan[0].mac.dcf packetSentToPeerWithoutRetry:vector(packetBytes) ETV
attr interpolationmode none
attr recordingmode vector(packetBytes)
attr source ieee80211NotRetry(packetSentToPeer)
attr title "packets sent: without retry, packetBytes"
vector 132 Scenario.node[2].wlan[0].mac.dcf.channelAccess.inProgressFrames queueingTime:vector ETV
attr interpolationmode none
attr recordingmode vector
attr source queueingTime(packetDequeued)
attr title "queueing times"
vector 133 Scenario.node[3].wlan[0].mac packetReceivedFromLower:vector(packetBytes) ETV
attr interpolationmode none
attr recordingmode vector(packetBytes)
attr title "packets received from lower layer, packetBytes"
vector 134 Scenario.node[3].wlan[0].mac.dcf packetReceivedFromPeer:vector(packetBytes) ETV
attr interpolationmode none
attr recordingmode vector(packetBytes)
attr title "packets received, packetBytes"
vector 135 Scenario.node[3].wlan[0].mac.dcf packetReceivedFromPeerMulticast:vector(packetBytes) ETV
attr interpolationmode none
attr recordingmode vector(packetBytes)
attr source ieee80211Multicast(packetReceivedFromPeer)
attr title "packets received: multicast, packetBytes"
vector 136 Scenario.node[3].wlan[0].mac.dcf packetReceivedFromPeerWithoutRetry:vector(packetBytes) ETV
attr interpolationmode none
attr recordingmode vector(packetBytes)
attr source ieee80211NotRetry(packetReceivedFromPeer)
attr title "packets received: without retry, packetBytes"
vector 137 Scenario.node[3].wlan[0].mac packetSentToUpper:vector(packetBytes) ETV
attr interpolationmode none
attr recordingmode vector(packetBytes)
attr title "packets sent to upper layer, packetBytes"
vector 138 Scenario.node[3].udp packetReceived:vector(packetBytes) ETV
attr interpolationmode none
attr recordingmode vector(packetBytes)
attr source packetReceived
attr title "packets received, packetBytes"
vector 139 Scenario.node[3].app[0] packetReceived:vector(packetBytes) ETV
attr interpolationmode none
attr recordingmode vector(packetBytes)
attr source packetReceived
attr title "packets received, packetBytes"
vector 140 Scenario.node[3].app[0] throughput:vector ETV
attr recordingmode vector
attr source throughput(packetReceived)
attr title throughput
attr unit bps
vector 141 Scenario.node[3].app[0] rcvdPkLifetime:vector ETV
attr interpolationmode none
attr recordingmode vector
attr source dataAge(packetReceived)
attr title "received packet lifetime"
attr unit s
vector 142 Scenario.node[3].app[0] packetSent:vector(packetBytes) ETV
attr interpolationmode none
attr recordingmode vector(packetBytes)
attr source packetSent
attr title "packets sent, packetBytes"
vector 143 Scenario.node[3].udp packetSent:vector(packetBytes) ETV
attr interpolationmode none
attr recordingmode vector(packetBytes)
attr source packetSent
attr title "packets sent, packetBytes"
vector 144 Scenario.node[3].lo[0].lo rcvdPkFromHl:vector(packetBytes) ETV
attr interpolationmode none
attr recordingmode vector(packetBytes)
attr source packetReceivedFromUpper
attr title "packets received from higher layer, packetBytes"
vector 145 Scenario.node[3].lo[0].lo passedUpPk:vector(packetBytes) ETV
attr interpolationmode none
attr recordingmode vector(packetBytes)
attr source packetSentToUpper
attr title "packets passed to higher layer, packetBytes"
vector 146 Scenario.node[3].wlan[0].mac packetReceivedFromUpper:vector(packetBytes) ETV
attr interpolationmode none
attr recordingmode vector(packetBytes)
attr title "packets received from upper layer, packetBytes"
vector 147 Scenario.node[3].wlan[0].mac.dcf.channelAccess.pendingQueue incomingPacketLengths:vector ETV
attr interpolationmode none
attr recordingmode vector
attr source packetLength(packetPushStarted)
attr title "incoming packet lengths"
attr unit b
vector 148 Scenario.node[3].wlan[0].mac.dcf.channelAccess.pendingQueue incomingDataRate:vector ETV
attr interpolationmode linear
attr recordingmode vector
attr source throughput(packetPushStarted)
attr title "incoming datarate"
attr unit bps
vector 149 Scenario.node[3].wlan[0].mac.dcf.channelAccess.pendingQueue queueLength:vector ETV
attr autoWarmupFilter false
attr interpolationmode sample-hold
attr recordingmode vector
attr source "warmup(atomic(constant0(packetPushEnded) + count(packetPushStarted) - count(packetPulled) - count(packetRemoved) - count(packetDropped)))"
attr title "queue length"
attr unit pk
vector 150 Scenario.node[3].wlan[0].mac.dcf.channelAccess.pendingQueue queueBitLength:vector ETV
attr autoWarmupFilter false
attr interpolationmode sample-hold
attr recordingmode vector
attr source "warmup(atomic(constant0(packetPushEnded) + sum(packetLength(packetPushStarted)) - sum(packetLength(packetPulled)) - sum(packetLength(packetRemoved)) - sum(packetLength(packetDropped))))"
attr title "queue bit length"
attr unit b
vector 151 Scenario.node[3].wlan[0].mac.dcf.channelAccess.contention backoffPeriodGenerated:vector ETV
attr interpolationmode none
attr recordingmode vector
attr title "backoff periods"
vector 152 Scenario.node[3].wlan[0].mac.dcf.channelAccess.pendingQueue queueingTime:vector ETV
attr interpolationmode none
attr recordingmode vector
attr source queueingTime(packetPulled)
attr title "queueing times"
attr unit s
vector 153 Scenario.node[3].wlan[0].mac.dcf.channelAccess.pendingQueue outgoingPacketLengths:vector ETV
attr interpolationmode none
attr recordingmode vector
attr source packetLength(packetPulled)
attr title "outgoing packet lengths"
attr unit b
vector 154 Scenario.node[3].wlan[0].mac.dcf.channelAccess.pendingQueue outgoingDataRate:vector ETV
attr interpolationmode linear
attr recordingmode vector
attr source throughput(packetPulled)
attr title "outgoing datarate"
attr unit bps
vector 155 Scenario.node[3].wlan[0].mac.dcf datarateSelected:vector ETV
attr interpolationmode none
attr recordingmode vector
attr title "datarates selected"
vector 156 Scenario.node[3].wlan[0].mac packetSentToLower:vector(packetBytes) ETV
attr interpolationmode none
attr recordingmode vector(packetBytes)
attr title "packets sent to lower layer, packetBytes"
vector 157 Scenario.node[3].wlan[0].radio transmissionState:vector ETV
attr interpolationmode sample-hold
attr recordingmode vector
attr source transmissionStateChanged
attr title "Radio transmission state"
vector 158 Scenario.node[3].wlan[0].mac.dcf packetSentToPeer:vector(packetBytes) ETV
attr interpolationmode none
attr recordingmode vector(packetBytes)
attr title "packets sent, packetBytes"
vector 159 Scenario.node[3].wlan[0].mac.dcf packetSentToPeerMulticast:vector(packetBytes) ETV
attr interpolationmode none
attr recordingmode vector(packetBytes)
attr source ieee80211Multicast(packetSentToPeer)
attr title "packets sent: multicast, packetBytes"
vector 160 Scenario.node[3].wlan[0].mac.dcf packetSentToPeerWithoutRetry:vector(packetBytes) ETV
attr interpolationmode none
attr recordingmode vector(packetBytes)
attr source ieee80211NotRetry(packetSentToPeer)
attr title "packets sent: without retry, packetBytes"
vector 161 Scenario.node[3].wlan[0].mac.dcf.channelAccess.inProgressFrames queueingTime:vector ETV
attr interpolationmode none
attr recordingmode vector
attr source queueingTime(packetDequeued)
attr title "queueing times"
73	244	20.000152152156	108
73	252	20.000152152156	108
78	246	20.000152152156	108
14	45	4.1	0
14	244	20.000152152156	1
14	252	20.000152152156	2
15	45	4.1	0
16	45	4.1	0
79	248	20.000152152156	128
80	248	20.000152152156	128
89	257	4.2	0
89	257	4.3	0
89	257	4.4	0
89	257	4.5	0
89	257	4.6	0
89	257	4.7	0
89	257	4.8	0
89	257	4.9	0
89	257	5	0
89	257	5.1	0
89	257	5.2	0
89	257	5.3	0
89	257	5.4	0
89	257	5.5	0
89	257	5.6	0
89	257	5.7	0
89	257	5.8	0
89	257	5.9	0
89	257	6	0
89	257	6.1	0
89	257	6.2	0
89	257	6.3	0
89	257	6.4	0
89	257	6.5	0
89	257	6.6	0
89	257	6.7	0
89	257	6.8	0
89	257	6.9	0
89	257	7	0
89	257	7.1	0
89	257	7.2	0
89	257	7.3	0
89	257	7.4	0
89	257	7.5	0
89	257	7.6	0
89	257	7.7	0
89	257	7.8	0
89	257	7.9	0
89	257	8	0
89	257	8.1	0
89	257	8.2	0
89	257	8.3	0
89	257	8.4	0
89	257	8.5	0
89	257	8.6	0
89	257	8.7	0
89	257	8.8	0
89	257	8.9	0
89	257	9	0
89	257	9.1	0
89	257	9.2	0
89	257	9.3	0
89	257	9.4	0
89	257	9.5	0
89	257	9.6	0
89	257	9.7	0
89	257	9.8	0
89	257	9.9	0
89	257	10	0
89	257	10.1	0
89	257	10.2	0
89	257	10.3	0
89	257	10.4	0
89	257	10.5	0
89	257	10.6	0
89	257	10.7	0
89	257	10.8	0
89	257	10.9	0
89	257	11	0
89	257	11.1	0
89	257	11.2	0
89	257	11.3	0
89	257	11.4	0
89	257	11.5	0
89	257	11.6	0
89	257	11.7	0
89	257	11.8	0
89	257	11.9	0
89	257	12	0
89	257	12.1	0
89	257	12.2	0
89	257	12.3	0
89	257	12.4	0
89	257	12.5	0
89	257	12.6	0
89	257	12.7	0
89	257	12.8	0
89	257	12.9	0
89	257	13	0
89	257	13.1	0
89	257	13.2	0
89	257	13.3	0
89	257	13.4	0
89	257	13.5	0
89	257	13.6	0
89	257	13.7	0
89	257	13.8	0
89	257	13.9	0
89	257	14	0
89	257	14.1	0
89	257	14.2	0
89	257	14.3	0
89	257	14.4	0
89	257	14.5	0
89	257	14.6	0
89	257	14.7	0
89	257	14.8	0
89	257	14.9	0
89	257	15	0
89	257	15.1	0
89	257	15.2	0
89	257	15.3	0
89	257	15.4	0
89	257	15.5	0
89	257	15.6	0
89	257	15.7	0
89	257	15.8	0
89	257	15.9	0
89	257	16	0
89	257	16.1	0
89	257	16.2	0
89	257	16.3	0
89	257	16.4	0
89	257	16.5	0
89	257	16.6	0
89	257	16.7	0
89	257	16.8	0
89	257	16.9	0
89	257	17	0
89	257	17.1	0
89	257	17.2	0
89	257	17.3	0
89	257	17.4	0
89	257	17.5	0
89	257	17.6	0
89	257	17.7	0
89	257	17.8	0
89	257	17.9	0
89	257	18	0
89	257	18.1	0
89	257	18.2	0
89	257	18.3	0
89	257	18.4	0
89	257	18.5	0
89	257	18.6	0
89	257	18.7	0
89	257	18.8	0
89	257	18.9	0
89	257	19	0
89	257	19.1	0
89	257	19.2	0
89	257	19.3	0
89	257	19.4	0
89	257	19.5	0
89	257	19.6	0
89	257	19.7	0
89	257	19.8	0
89	257	19.9	0
89	257	20	0
89	462	20.1	12640
89	462	20.2	0
89	462	20.3	0
89	462	20.4	0
89	462	20.5	0
89	462	20.6	0
89	462	20.7	0
89	462	20.8	0
89	462	20.9	0
89	462	21	0
89	462	21.1	0
89	462	21.2	0
89	462	21.3	0
89	462	21.4	0
89	462	21.5	0
89	462	21.6	0
89	462	21.7	0
89	462	21.8	0
89	462	21.9	0
89	462	22	0
89	462	22.1	0
89	462	22.2	0
89	462	22.3	0
89	462	22.4	0
89	462	22.5	0
89	462	22.6	0
89	462	22.7	0
89	462	22.8	0
89	462	22.9	0
89	462	23	0
89	462	23.1	0
89	462	23.2	0
89	462	23.3	0
89	462	23.4	0
89	462	23.5	0
89	462	23.6	0
89	462	23.7	0
89	462	23.8	0
89	462	23.9	0
89	462	24	0
89	462	24.1	0
89	462	24.2	0
89	462	24.3	0
89	462	24.4	0
89	462	24.5	0
89	462	24.6	0
89	462	24.7	0
89	462	24.8	0
89	462	24.9	0
89	462	25	0
89	462	25.1	0
89	462	25.2	0
89	462	25.3	0
89	462	25.4	0
89	462	25.5	0
89	462	25.6	0
89	462	25.7	0
89	462	25.8	0
89	462	25.9	0
89	462	26	0
89	462	26.1	0
89	462	26.2	0
89	462	26.3	0
89	462	26.4	0
89	462	26.5	0
89	462	26.6	0
89	462	26.7	0
89	462	26.8	0
89	462	26.9	0
89	462	27	0
89	462	27.1	0
89	462	27.2	0
89	462	27.3	0
89	462	27.4	0
89	462	27.5	0
89	462	27.6	0
89	462	27.7	0
89	462	27.8	0
89	462	27.9	0
89	462	28	0
89	462	28.1	0
89	462	28.2	0
89	462	28.3	0
89	462	28.4	0
89	462	28.5	0
89	462	28.6	0
89	462	28.7	0
89	462	28.8	0
89	462	28.9	0
89	462	29	0
89	462	29.1	0
89	462	29.2	0
89	462	29.3	0
89	462	29.4	0
89	462	29.5	0
89	462	29.6	0
89	462	29.7	0
89	462	29.8	0
89	462	29.9	0
89	462	30	0
89	462	30.1	0
89	462	30.2	0
89	462	30.3	0
89	462	30.4	0
89	462	30.5	0
89	462	30.6	0
89	462	30.7	0
89	462	30.8	0
89	462	30.9	0
89	462	31	0
89	462	31.1	0
89	462	31.2	0
89	462	31.3	0
89	462	31.4	0
89	462	31.5	0
89	462	31.6	0
89	462	31.7	0
88	257	20.000288152156	1264
87	257	20.000288152156	0.000136
83	251	4.2	0
83	251	4.3	0
83	251	4.4	0
83	251	4.5	0
83	251	4.6	0
83	251	4.7	0
83	251	4.8	0
83	251	4.9	0
83	251	5	0
83	251	5.1	0
83	251	5.2	0
83	251	5.3	0
83	251	5.4	0
83	251	5.5	0
83	251	5.6	0
83	251	5.7	0
83	251	5.8	0
83	251	5.9	0
83	251	6	0
83	251	6.1	0
83	251	6.2	0
83	251	6.3	0
83	251	6.4	0
83	251	6.5	0
83	251	6.6	0
83	251	6.7	0
83	251	6.8	0
83	251	6.9	0
83	251	7	0
83	251	7.1	0
83	251	7.2	0
83	251	7.3	0
83	251	7.4	0
83	251	7.5	0
83	251	7.6	0
83	251	7.7	0
83	251	7.8	0
83	251	7.9	0
83	251	8	0
83	251	8.1	0
83	251	8.2	0
83	251	8.3	0
83	251	8.4	0
83	251	8.5	0
83	251	8.6	0
83	251	8.7	0
83	251	8.8	0
83	251	8.9	0
83	251	9	0
83	251	9.1	0
83	251	9.2	0
83	251	9.3	0
83	251	9.4	0
83	251	9.5	0
83	251	9.6	0
83	251	9.7	0
83	251	9.8	0
83	251	9.9	0
83	251	10	0
83	251	10.1	0
83	251	10.2	0
83	251	10.3	0
83	251	10.4	0
83	251	10.5	0
83	251	10.6	0
83	251	10.7	0
83	251	10.8	0
83	251	10.9	0
83	251	11	0
83	251	11.1	0
83	251	11.2	0
83	251	11.3	0
83	251	11.4	0
83	251	11.5	0
83	251	11.6	0
83	251	11.7	0
83	251	11.8	0
83	251	11.9	0
83	251	12	0
83	251	12.1	0
83	251	12.2	0
83	251	12.3	0
83	251	12.4	0
83	251	12.5	0
83	251	12.6	0
83	251	12.7	0
83	251	12.8	0
83	251	12.9	0
83	251	13	0
83	251	13.1	0
83	251	13.2	0
83	251	13.3	0
83	251	13.4	0
83	251	13.5	0
83	251	13.6	0
83	251	13.7	0
83	251	13.8	0
83	251	13.9	0
83	251	14	0
83	251	14.1	0
83	251	14.2	0
83	251	14.3	0
83	251	14.4	0
83	251	14.5	0
83	251	14.6	0
83	251	14.7	0
83	251	14.8	0
83	251	14.9	0
83	251	15	0
83	251	15.1	0
83	251	15.2	0
83	251	15.3	0
83	251	15.4	0
83	251	15.5	0
83	251	15.6	0
83	251	15.7	0
83	251	15.8	0
83	251	15.9	0
83	251	16	0
83	251	16.1	0
83	251	16.2	0
83	251	16.3	0
83	251	16.4	0
83	251	16.5	0
83	251	16.6	0
83	251	16.7	0
83	251	16.8	0
83	251	16.9	0
83	251	17	0
83	251	17.1	0
83	251	17.2	0
83	251	17.3	0
83	251	17.4	0
83	251	17.5	0
83	251	17.6	0
83	251	17.7	0
83	251	17.8	0
83	251	17.9	0
83	251	18	0
83	251	18.1	0
83	251	18.2	0
83	251	18.3	0
83	251	18.4	0
83	251	18.5	0
83	251	18.6	0
83	251	18.7	0
83	251	18.8	0
83	251	18.9	0
83	251	19	0
83	251	19.1	0
83	251	19.2	0
83	251	19.3	0
83	251	19.4	0
83	251	19.5	0
83	251	19.6	0
83	251	19.7	0
83	251	19.8	0
83	251	19.9	0
83	251	20	0
83	462	20.1	12640
83	462	20.2	0
83	462	20.3	0
83	462	20.4	0
83	462	20.5	0
83	462	20.6	0
83	462	20.7	0
83	462	20.8	0
83	462	20.9	0
83	462	21	0
83	462	21.1	0
83	462	21.2	0
83	462	21.3	0
83	462	21.4	0
83	462	21.5	0
83	462	21.6	0
83	462	21.7	0
83	462	21.8	0
83	462	21.9	0
83	462	22	0
83	462	22.1	0
83	462	22.2	0
83	462	22.3	0
83	462	22.4	0
83	462	22.5	0
83	462	22.6	0
83	462	22.7	0
83	462	22.8	0
83	462	22.9	0
83	462	23	0
83	462	23.1	0
83	462	23.2	0
83	462	23.3	0
83	462	23.4	0
83	462	23.5	0
83	462	23.6	0
83	462	23.7	0
83	462	23.8	0
83	462	23.9	0
83	462	24	0
83	462	24.1	0
83	462	24.2	0
83	462	24.3	0
83	462	24.4	0
83	462	24.5	0
83	462	24.6	0
83	462	24.7	0
83	462	24.8	0
83	462	24.9	0
83	462	25	0
83	462	25.1	0
83	462	25.2	0
83	462	25.3	0
83	462	25.4	0
83	462	25.5	0
83	462	25.6	0
83	462	25.7	0
83	462	25.8	0
83	462	25.9	0
83	462	26	0
83	462	26.1	0
83	462	26.2	0
83	462	26.3	0
83	462	26.4	0
83	462	26.5	0
83	462	26.6	0
83	462	26.7	0
83	462	26.8	0
83	462	26.9	0
83	462	27	0
83	462	27.1	0
83	462	27.2	0
83	462	27.3	0
83	462	27.4	0
83	462	27.5	0
83	462	27.6	0
83	462	27.7	0
83	462	27.8	0
83	462	27.9	0
83	462	28	0
83	462	28.1	0
83	462	28.2	0
83	462	28.3	0
83	462	28.4	0
83	462	28.5	0
83	462	28.6	0
83	462	28.7	0
83	462	28.8	0
83	462	28.9	0
83	462	29	0
83	462	29.1	0
83	462	29.2	0
83	462	29.3	0
83	462	29.4	0
83	462	29.5	0
83	462	29.6	0
83	462	29.7	0
83	462	29.8	0
83	462	29.9	0
83	462	30	0
83	462	30.1	0
83	462	30.2	0
83	462	30.3	0
83	462	30.4	0
83	462	30.5	0
83	462	30.6	0
83	462	30.7	0
83	462	30.8	0
83	462	30.9	0
83	462	31	0
83	462	31.1	0
83	462	31.2	0
83	462	31.3	0
83	462	31.4	0
83	462	31.5	0
83	462	31.6	0
83	462	31.7	0
82	251	20.000152152156	1264
84	251	20.000152152156	1
84	257	20.000288152156	0
85	251	20.000152152156	1264
85	257	20.000288152156	0
96	263	20.000440152156	0.000152
12	45	4.1	0
12	45	4.1	0
12	257	20.000288152156	1
12	263	20.000440152156	0
13	45	4.1	0
13	45	4.1	0
13	251	20.000152152156	1
13	256	20.000288152156	0
86	251	20.000152152156	6
20	45	4.1	0
20	45	4.1	0
20	235	20.000000152156	0
20	235	20.000000152156	0
20	240	20.000152152156	0
20	240	20.000152152156	0
20	251	20.000152152156	0
20	251	20.000152152156	2
20	256	20.000288152156	2
20	256	20.000288152156	0
20	258	20.000288152156	0
20	258	20.000288152156	0
20	264	20.000440152156	0
20	264	20.000440152156	0
20	290	20.000511456468	0
20	290	20.000511456468	0
20	303	20.000663456468	0
20	303	20.000663456468	0
20	322	20.000754518774	0
20	322	20.000754518774	0
21	45	4.1	15
90	257	20.000288152156	12000000
11	45	4.1	0
11	45	4.1	0
11	257	20.000288152156	1
11	263	20.000440152156	0
71	241	20.000152152156	158
70	241	20.000152152156	158
69	241	20.000152152156	158
95	263	20.000440152156	158
94	263	20.000440152156	158
93	263	20.000440152156	158
68	241	20.000152152156	158
68	303	20.000663456468	158
91	257	20.000288152156	158
81	251	20.000152152156	130
72	241	20.000152152156	130
128	303	20.000663456468	158
127	303	20.000663456468	158
18	45	4.1	3
17	45	4.1	0
17	45	4.1	0
17	45	4.1	2
17	258	20.000288152156	3
17	264	20.000440152156	2
19	45	4.1	1
19	235	20.000000152156	3
19	240	20.000152152156	1
19	258	20.000288152156	0
19	264	20.000440152156	1
19	290	20.000511456468	3
19	302	20.000663456468	2
19	322	20.000754518774	1
92	258	20.000288152156	1
92	259	20.000288152156	2
92	263	20.000440152156	1
92	264	20.000440152156	0
76	245	20.000152152156	0.000152152156
76	253	20.000152152156	0.000152152156
75	245	4.2	0
75	245	4.3	0
75	245	4.4	0
75	245	4.5	0
75	245	4.6	0
75	245	4.7	0
75	245	4.8	0
75	245	4.9	0
75	245	5	0
75	245	5.1	0
75	245	5.2	0
75	245	5.3	0
75	245	5.4	0
75	245	5.5	0
75	245	5.6	0
75	245	5.7	0
75	245	5.8	0
75	245	5.9	0
75	245	6	0
75	245	6.1	0
75	245	6.2	0
75	245	6.3	0
75	245	6.4	0
75	245	6.5	0
75	245	6.6	0
75	245	6.7	0
75	245	6.8	0
75	245	6.9	0
75	245	7	0
75	245	7.1	0
75	245	7.2	0
75	245	7.3	0
75	245	7.4	0
75	245	7.5	0
75	245	7.6	0
75	245	7.7	0
75	245	7.8	0
75	245	7.9	0
75	245	8	0
75	245	8.1	0
75	245	8.2	0
75	245	8.3	0
75	245	8.4	0
75	245	8.5	0
75	245	8.6	0
75	245	8.7	0
75	245	8.8	0
75	245	8.9	0
75	245	9	0
75	245	9.1	0
75	245	9.2	0
75	245	9.3	0
75	245	9.4	0
75	245	9.5	0
75	245	9.6	0
75	245	9.7	0
75	245	9.8	0
75	245	9.9	0
75	245	10	0
75	245	10.1	0
75	245	10.2	0
75	245	10.3	0
75	245	10.4	0
75	245	10.5	0
75	245	10.6	0
75	245	10.7	0
75	245	10.8	0
75	245	10.9	0
75	245	11	0
75	245	11.1	0
75	245	11.2	0
75	245	11.3	0
75	245	11.4	0
75	245	11.5	0
75	245	11.6	0
75	245	11.7	0
75	245	11.8	0
75	245	11.9	0
75	245	12	0
75	245	12.1	0
75	245	12.2	0
75	245	12.3	0
75	245	12.4	0
75	245	12.5	0
75	245	12.6	0
75	245	12.7	0
75	245	12.8	0
75	245	12.9	0
75	245	13	0
75	245	13.1	0
75	245	13.2	0
75	245	13.3	0
75	245	13.4	0
75	245	13.5	0
75	245	13.6	0
75	245	13.7	0
75	245	13.8	0
75	245	13.9	0
75	245	14	0
75	245	14.1	0
75	245	14.2	0
75	245	14.3	0
75	245	14.4	0
75	245	14.5	0
75	245	14.6	0
75	245	14.7	0
75	245	14.8	0
75	245	14.9	0
75	245	15	0
75	245	15.1	0
75	245	15.2	0
75	245	15.3	0
75	245	15.4	0
75	245	15.5	0
75	245	15.6	0
75	245	15.7	0
75	245	15.8	0
75	245	15.9	0
75	245	16	0
75	245	16.1	0
75	245	16.2	0
75	245	16.3	0
75	245	16.4	0
75	245	16.5	0
75	245	16.6	0
75	245	16.7	0
75	245	16.8	0
75	245	16.9	0
75	245	17	0
75	245	17.1	0
75	245	17.2	0
75	245	17.3	0
75	245	17.4	0
75	245	17.5	0
75	245	17.6	0
75	245	17.7	0
75	245	17.8	0
75	245	17.9	0
75	245	18	0
75	245	18.1	0
75	245	18.2	0
75	245	18.3	0
75	245	18.4	0
75	245	18.5	0
75	245	18.6	0
75	245	18.7	0
75	245	18.8	0
75	245	18.9	0
75	245	19	0
75	245	19.1	0
75	245	19.2	0
75	245	19.3	0
75	245	19.4	0
75	245	19.5	0
75	245	19.6	0
75	245	19.7	0
75	245	19.8	0
75	245	19.9	0
75	245	20	0
75	462	20.1	16000
75	462	20.2	0
75	462	20.3	0
75	462	20.4	0
75	462	20.5	0
75	462	20.6	0
75	462	20.7	0
75	462	20.8	0
75	462	20.9	0
75	462	21	0
75	462	21.1	0
75	462	21.2	0
75	462	21.3	0
75	462	21.4	0
75	462	21.5	0
75	462	21.6	0
75	462	21.7	0
75	462	21.8	0
75	462	21.9	0
75	462	22	0
75	462	22.1	0
75	462	22.2	0
75	462	22.3	0
75	462	22.4	0
75	462	22.5	0
75	462	22.6	0
75	462	22.7	0
75	462	22.8	0
75	462	22.9	0
75	462	23	0
75	462	23.1	0
75	462	23.2	0
75	462	23.3	0
75	462	23.4	0
75	462	23.5	0
75	462	23.6	0
75	462	23.7	0
75	462	23.8	0
75	462	23.9	0
75	462	24	0
75	462	24.1	0
75	462	24.2	0
75	462	24.3	0
75	462	24.4	0
75	462	24.5	0
75	462	24.6	0
75	462	24.7	0
75	462	24.8	0
75	462	24.9	0
75	462	25	0
75	462	25.1	0
75	462	25.2	0
75	462	25.3	0
75	462	25.4	0
75	462	25.5	0
75	462	25.6	0
75	462	25.7	0
75	462	25.8	0
75	462	25.9	0
75	462	26	0
75	462	26.1	0
75	462	26.2	0
75	462	26.3	0
75	462	26.4	0
75	462	26.5	0
75	462	26.6	0
75	462	26.7	0
75	462	26.8	0
75	462	26.9	0
75	462	27	0
75	462	27.1	0
75	462	27.2	0
75	462	27.3	0
75	462	27.4	0
75	462	27.5	0
75	462	27.6	0
75	462	27.7	0
75	462	27.8	0
75	462	27.9	0
75	462	28	0
75	462	28.1	0
75	462	28.2	0
75	462	28.3	0
75	462	28.4	0
75	462	28.5	0
75	462	28.6	0
75	462	28.7	0
75	462	28.8	0
75	462	28.9	0
75	462	29	0
75	462	29.1	0
75	462	29.2	0
75	462	29.3	0
75	462	29.4	0
75	462	29.5	0
75	462	29.6	0
75	462	29.7	0
75	462	29.8	0
75	462	29.9	0
75	462	30	0
75	462	30.1	0
75	462	30.2	0
75	462	30.3	0
75	462	30.4	0
75	462	30.5	0
75	462	30.6	0
75	462	30.7	0
75	462	30.8	0
75	462	30.9	0
75	462	31	0
75	462	31.1	0
75	462	31.2	0
75	462	31.3	0
75	462	31.4	0
75	462	31.5	0
75	462	31.6	0
75	462	31.7	0
74	245	20.000152152156	100
74	253	20.000152152156	100
77	245	20.000152152156	100
107	275	20.000440335465	108
107	283	20.000440335465	108
107	337	20.001068625267	108
112	277	20.000440335465	108
25	88	8.1	0
25	275	20.000440335465	1
25	283	20.000440335465	2
25	337	20.001068625267	3
26	88	8.1	0
27	88	8.1	0
113	279	20.000440335465	128
114	279	20.000440335465	128
123	294	8.2	0
123	294	8.3	0
123	294	8.4	0
123	294	8.5	0
123	294	8.6	0
123	294	8.7	0
123	294	8.8	0
123	294	8.9	0
123	294	9	0
123	294	9.1	0
123	294	9.2	0
123	294	9.3	0
123	294	9.4	0
123	294	9.5	0
123	294	9.6	0
123	294	9.7	0
123	294	9.8	0
123	294	9.9	0
123	294	10	0
123	294	10.1	0
123	294	10.2	0
123	294	10.3	0
123	294	10.4	0
123	294	10.5	0
123	294	10.6	0
123	294	10.7	0
123	294	10.8	0
123	294	10.9	0
123	294	11	0
123	294	11.1	0
123	294	11.2	0
123	294	11.3	0
123	294	11.4	0
123	294	11.5	0
123	294	11.6	0
123	294	11.7	0
123	294	11.8	0
123	294	11.9	0
123	294	12	0
123	294	12.1	0
123	294	12.2	0
123	294	12.3	0
123	294	12.4	0
123	294	12.5	0
123	294	12.6	0
123	294	12.7	0
123	294	12.8	0
123	294	12.9	0
123	294	13	0
123	294	13.1	0
123	294	13.2	0
123	294	13.3	0
123	294	13.4	0
123	294	13.5	0
123	294	13.6	0
123	294	13.7	0
123	294	13.8	0
123	294	13.9	0
123	294	14	0
123	294	14.1	0
123	294	14.2	0
123	294	14.3	0
123	294	14.4	0
123	294	14.5	0
123	294	14.6	0
123	294	14.7	0
123	294	14.8	0
123	294	14.9	0
123	294	15	0
123	294	15.1	0
123	294	15.2	0
123	294	15.3	0
123	294	15.4	0
123	294	15.5	0
123	294	15.6	0
123	294	15.7	0
123	294	15.8	0
123	294	15.9	0
123	294	16	0
123	294	16.1	0
123	294	16.2	0
123	294	16.3	0
123	294	16.4	0
123	294	16.5	0
123	294	16.6	0
123	294	16.7	0
123	294	16.8	0
123	294	16.9	0
123	294	17	0
123	294	17.1	0
123	294	17.2	0
123	294	17.3	0
123	294	17.4	0
123	294	17.5	0
123	294	17.6	0
123	294	17.7	0
123	294	17.8	0
123	294	17.9	0
123	294	18	0
123	294	18.1	0
123	294	18.2	0
123	294	18.3	0
123	294	18.4	0
123	294	18.5	0
123	294	18.6	0
123	294	18.7	0
123	294	18.8	0
123	294	18.9	0
123	294	19	0
123	294	19.1	0
123	294	19.2	0
123	294	19.3	0
123	294	19.4	0
123	294	19.5	0
123	294	19.6	0
123	294	19.7	0
123	294	19.8	0
123	294	19.9	0
123	294	20	0
123	620	20.1	12640
123	620	20.2	0
123	620	20.3	0
123	620	20.4	0
123	620	20.5	0
123	620	20.6	0
123	620	20.7	0
123	620	20.8	0
123	620	20.9	0
123	620	21	0
123	620	21.1	0
123	620	21.2	0
123	620	21.3	0
123	620	21.4	0
123	620	21.5	0
123	620	21.6	0
123	620	21.7	0
123	620	21.8	0
123	620	21.9	0
123	620	22	0
123	620	22.1	0
123	620	22.2	0
123	620	22.3	0
123	620	22.4	0
123	620	22.5	0
123	620	22.6	0
123	620	22.7	0
123	620	22.8	0
123	620	22.9	0
123	620	23	0
123	620	23.1	0
123	620	23.2	0
123	620	23.3	0
123	620	23.4	0
123	620	23.5	0
123	620	23.6	0
123	620	23.7	0
123	620	23.8	0
123	620	23.9	0
123	620	24	0
123	620	24.1	0
123	620	24.2	0
123	620	24.3	0
123	620	24.4	0
123	620	24.5	0
123	620	24.6	0
123	620	24.7	0
123	620	24.8	0
123	620	24.9	0
123	620	25	0
123	620	25.1	0
123	620	25.2	0
123	620	25.3	0
123	620	25.4	0
123	620	25.5	0
123	620	25.6	0
123	620	25.7	0
123	620	25.8	0
123	620	25.9	0
123	620	26	0
123	620	26.1	0
123	620	26.2	0
123	620	26.3	0
123	620	26.4	0
123	620	26.5	0
123	620	26.6	0
123	620	26.7	0
123	620	26.8	0
123	620	26.9	0
123	620	27	0
123	620	27.1	0
123	620	27.2	0
123	620	27.3	0
123	620	27.4	0
123	620	27.5	0
123	620	27.6	0
123	620	27.7	0
123	620	27.8	0
123	620	27.9	0
123	620	28	0
123	620	28.1	0
123	620	28.2	0
123	620	28.3	0
123	620	28.4	0
123	620	28.5	0
123	620	28.6	0
123	620	28.7	0
123	620	28.8	0
123	620	28.9	0
123	620	29	0
123	620	29.1	0
123	620	29.2	0
123	620	29.3	0
123	620	29.4	0
123	620	29.5	0
123	620	29.6	0
123	620	29.7	0
123	620	29.8	0
123	620	29.9	0
123	620	30	0
123	620	30.1	0
123	620	30.2	0
123	620	30.3	0
123	620	30.4	0
123	620	30.5	0
123	620	30.6	0
123	620	30.7	0
123	620	30.8	0
123	620	30.9	0
123	620	31	0
123	620	31.1	0
123	620	31.2	0
123	620	31.3	0
123	620	31.4	0
123	620	31.5	0
123	620	31.6	0
123	620	31.7	0
123	620	31.8	0
123	620	31.9	0
123	620	32	0
123	620	32.1	0
123	620	32.2	0
123	620	32.3	0
123	620	32.4	0
123	620	32.5	0
123	620	32.6	0
123	620	32.7	0
123	620	32.8	0
123	620	32.9	0
123	620	33	0
123	620	33.1	0
123	620	33.2	0
123	620	33.3	0
123	620	33.4	0
123	620	33.5	0
123	620	33.6	0
123	620	33.7	0
123	620	33.8	0
123	620	33.9	0
123	620	34	0
123	620	34.1	0
123	620	34.2	0
123	620	34.3	0
123	620	34.4	0
123	620	34.5	0
123	620	34.6	0
123	620	34.7	0
123	620	34.8	0
123	620	34.9	0
123	620	35	0
123	620	35.1	0
123	620	35.2	0
123	620	35.3	0
123	620	35.4	0
123	620	35.5	0
123	620	35.6	0
123	620	35.7	0
123	620	35.8	0
123	620	35.9	0
123	620	36	0
123	620	36.1	0
123	620	36.2	0
123	620	36.3	0
123	620	36.4	0
123	620	36.5	0
123	620	36.6	0
123	620	36.7	0
123	620	36.8	0
123	620	36.9	0
123	620	37	0
123	620	37.1	0
123	620	37.2	0
123	620	37.3	0
123	620	37.4	0
123	620	37.5	0
123	620	37.6	0
123	620	37.7	0
123	620	37.8	0
123	620	37.9	0
123	620	38	0
123	620	38.1	0
123	620	38.2	0
123	620	38.3	0
123	620	38.4	0
123	620	38.5	0
123	620	38.6	0
123	620	38.7	0
123	620	38.8	0
123	620	38.9	0
123	620	39	0
123	620	39.1	0
123	620	39.2	0
123	620	39.3	0
123	620	39.4	0
123	620	39.5	0
123	620	39.6	0
123	620	39.7	0
123	620	39.8	0
123	620	39.9	0
123	620	40	0
123	620	40.1	0
123	620	40.2	0
123	620	40.3	0
123	620	40.4	0
123	620	40.5	0
123	620	40.6	0
123	620	40.7	0
123	620	40.8	0
123	620	40.9	0
123	620	41	0
123	620	41.1	0
123	620	41.2	0
123	620	41.3	0
123	620	41.4	0
123	620	41.5	0
123	620	41.6	0
123	620	41.7	0
123	620	41.8	0
123	620	41.9	0
123	620	42	0
123	620	42.1	0
123	620	42.2	0
123	620	42.3	0
123	620	42.4	0
123	620	42.5	0
123	620	42.6	0
123	620	42.7	0
123	620	42.8	0
123	620	42.9	0
123	620	43	0
123	620	43.1	0
123	620	43.2	0
123	620	43.3	0
123	620	43.4	0
123	620	43.5	0
123	620	43.6	0
123	620	43.7	0
123	620	43.8	0
123	620	43.9	0
123	620	44	0
123	620	44.1	0
123	620	44.2	0
123	620	44.3	0
123	620	44.4	0
123	620	44.5	0
123	620	44.6	0
123	620	44.7	0
123	620	44.8	0
123	620	44.9	0
123	620	45	0
123	620	45.1	0
123	620	45.2	0
123	620	45.3	0
123	620	45.4	0
123	620	45.5	0
123	620	45.6	0
123	620	45.7	0
123	620	45.8	0
123	620	45.9	0
123	620	46	0
123	620	46.1	0
123	620	46.2	0
123	620	46.3	0
123	620	46.4	0
123	620	46.5	0
123	620	46.6	0
123	620	46.7	0
123	620	46.8	0
123	620	46.9	0
123	620	47	0
123	620	47.1	0
123	620	47.2	0
123	620	47.3	0
123	620	47.4	0
123	620	47.5	0
122	294	20.000602335465	1264
121	294	20.000602335465	0.000162
117	282	8.2	0
117	282	8.3	0
117	282	8.4	0
117	282	8.5	0
117	282	8.6	0
117	282	8.7	0
117	282	8.8	0
117	282	8.9	0
117	282	9	0
117	282	9.1	0
117	282	9.2	0
117	282	9.3	0
117	282	9.4	0
117	282	9.5	0
117	282	9.6	0
117	282	9.7	0
117	282	9.8	0
117	282	9.9	0
117	282	10	0
117	282	10.1	0
117	282	10.2	0
117	282	10.3	0
117	282	10.4	0
117	282	10.5	0
117	282	10.6	0
117	282	10.7	0
117	282	10.8	0
117	282	10.9	0
117	282	11	0
117	282	11.1	0
117	282	11.2	0
117	282	11.3	0
117	282	11.4	0
117	282	11.5	0
117	282	11.6	0
117	282	11.7	0
117	282	11.8	0
117	282	11.9	0
117	282	12	0
117	282	12.1	0
117	282	12.2	0
117	282	12.3	0
117	282	12.4	0
117	282	12.5	0
117	282	12.6	0
117	282	12.7	0
117	282	12.8	0
117	282	12.9	0
117	282	13	0
117	282	13.1	0
117	282	13.2	0
117	282	13.3	0
117	282	13.4	0
117	282	13.5	0
117	282	13.6	0
117	282	13.7	0
117	282	13.8	0
117	282	13.9	0
117	282	14	0
117	282	14.1	0
117	282	14.2	0
117	282	14.3	0
117	282	14.4	0
117	282	14.5	0
117	282	14.6	0
117	282	14.7	0
117	282	14.8	0
117	282	14.9	0
117	282	15	0
117	282	15.1	0
117	282	15.2	0
117	282	15.3	0
117	282	15.4	0
117	282	15.5	0
117	282	15.6	0
117	282	15.7	0
117	282	15.8	0
117	282	15.9	0
117	282	16	0
117	282	16.1	0
117	282	16.2	0
117	282	16.3	0
117	282	16.4	0
117	282	16.5	0
117	282	16.6	0
117	282	16.7	0
117	282	16.8	0
117	282	16.9	0
117	282	17	0
117	282	17.1	0
117	282	17.2	0
117	282	17.3	0
117	282	17.4	0
117	282	17.5	0
117	282	17.6	0
117	282	17.7	0
117	282	17.8	0
117	282	17.9	0
117	282	18	0
117	282	18.1	0
117	282	18.2	0
117	282	18.3	0
117	282	18.4	0
117	282	18.5	0
117	282	18.6	0
117	282	18.7	0
117	282	18.8	0
117	282	18.9	0
117	282	19	0
117	282	19.1	0
117	282	19.2	0
117	282	19.3	0
117	282	19.4	0
117	282	19.5	0
117	282	19.6	0
117	282	19.7	0
117	282	19.8	0
117	282	19.9	0
117	282	20	0
117	620	20.1	12640
117	620	20.2	0
117	620	20.3	0
117	620	20.4	0
117	620	20.5	0
117	620	20.6	0
117	620	20.7	0
117	620	20.8	0
117	620	20.9	0
117	620	21	0
117	620	21.1	0
117	620	21.2	0
117	620	21.3	0
117	620	21.4	0
117	620	21.5	0
117	620	21.6	0
117	620	21.7	0
117	620	21.8	0
117	620	21.9	0
117	620	22	0
117	620	22.1	0
117	620	22.2	0
117	620	22.3	0
117	620	22.4	0
117	620	22.5	0
117	620	22.6	0
117	620	22.7	0
117	620	22.8	0
117	620	22.9	0
117	620	23	0
117	620	23.1	0
117	620	23.2	0
117	620	23.3	0
117	620	23.4	0
117	620	23.5	0
117	620	23.6	0
117	620	23.7	0
117	620	23.8	0
117	620	23.9	0
117	620	24	0
117	620	24.1	0
117	620	24.2	0
117	620	24.3	0
117	620	24.4	0
117	620	24.5	0
117	620	24.6	0
117	620	24.7	0
117	620	24.8	0
117	620	24.9	0
117	620	25	0
117	620	25.1	0
117	620	25.2	0
117	620	25.3	0
117	620	25.4	0
117	620	25.5	0
117	620	25.6	0
117	620	25.7	0
117	620	25.8	0
117	620	25.9	0
117	620	26	0
117	620	26.1	0
117	620	26.2	0
117	620	26.3	0
117	620	26.4	0
117	620	26.5	0
117	620	26.6	0
117	620	26.7	0
117	620	26.8	0
117	620	26.9	0
117	620	27	0
117	620	27.1	0
117	620	27.2	0
117	620	27.3	0
117	620	27.4	0
117	620	27.5	0
117	620	27.6	0
117	620	27.7	0
117	620	27.8	0
117	620	27.9	0
117	620	28	0
117	620	28.1	0
117	620	28.2	0
117	620	28.3	0
117	620	28.4	0
117	620	28.5	0
117	620	28.6	0
117	620	28.7	0
117	620	28.8	0
117	620	28.9	0
117	620	29	0
117	620	29.1	0
117	620	29.2	0
117	620	29.3	0
117	620	29.4	0
117	620	29.5	0
117	620	29.6	0
117	620	29.7	0
117	620	29.8	0
117	620	29.9	0
117	620	30	0
117	620	30.1	0
117	620	30.2	0
117	620	30.3	0
117	620	30.4	0
117	620	30.5	0
117	620	30.6	0
117	620	30.7	0
117	620	30.8	0
117	620	30.9	0
117	620	31	0
117	620	31.1	0
117	620	31.2	0
117	620	31.3	0
117	620	31.4	0
117	620	31.5	0
117	620	31.6	0
117	620	31.7	0
117	620	31.8	0
117	620	31.9	0
117	620	32	0
117	620	32.1	0
117	620	32.2	0
117	620	32.3	0
117	620	32.4	0
117	620	32.5	0
117	620	32.6	0
117	620	32.7	0
117	620	32.8	0
117	620	32.9	0
117	620	33	0
117	620	33.1	0
117	620	33.2	0
117	620	33.3	0
117	620	33.4	0
117	620	33.5	0
117	620	33.6	0
117	620	33.7	0
117	620	33.8	0
117	620	33.9	0
117	620	34	0
117	620	34.1	0
117	620	34.2	0
117	620	34.3	0
117	620	34.4	0
117	620	34.5	0
117	620	34.6	0
117	620	34.7	0
117	620	34.8	0
117	620	34.9	0
117	620	35	0
117	620	35.1	0
117	620	35.2	0
117	620	35.3	0
117	620	35.4	0
117	620	35.5	0
117	620	35.6	0
117	620	35.7	0
117	620	35.8	0
117	620	35.9	0
117	620	36	0
117	620	36.1	0
117	620	36.2	0
117	620	36.3	0
117	620	36.4	0
117	620	36.5	0
117	620	36.6	0
117	620	36.7	0
117	620	36.8	0
117	620	36.9	0
117	620	37	0
117	620	37.1	0
117	620	37.2	0
117	620	37.3	0
117	620	37.4	0
117	620	37.5	0
117	620	37.6	0
117	620	37.7	0
117	620	37.8	0
117	620	37.9	0
117	620	38	0
117	620	38.1	0
117	620	38.2	0
117	620	38.3	0
117	620	38.4	0
117	620	38.5	0
117	620	38.6	0
117	620	38.7	0
117	620	38.8	0
117	620	38.9	0
117	620	39	0
117	620	39.1	0
117	620	39.2	0
117	620	39.3	0
117	620	39.4	0
117	620	39.5	0
117	620	39.6	0
117	620	39.7	0
117	620	39.8	0
117	620	39.9	0
117	620	40	0
117	620	40.1	0
117	620	40.2	0
117	620	40.3	0
117	620	40.4	0
117	620	40.5	0
117	620	40.6	0
117	620	40.7	0
117	620	40.8	0
117	620	40.9	0
117	620	41	0
117	620	41.1	0
117	620	41.2	0
117	620	41.3	0
117	620	41.4	0
117	620	41.5	0
117	620	41.6	0
117	620	41.7	0
117	620	41.8	0
117	620	41.9	0
117	620	42	0
117	620	42.1	0
117	620	42.2	0
117	620	42.3	0
117	620	42.4	0
117	620	42.5	0
117	620	42.6	0
117	620	42.7	0
117	620	42.8	0
117	620	42.9	0
117	620	43	0
117	620	43.1	0
117	620	43.2	0
117	620	43.3	0
117	620	43.4	0
117	620	43.5	0
117	620	43.6	0
117	620	43.7	0
117	620	43.8	0
117	620	43.9	0
117	620	44	0
117	620	44.1	0
117	620	44.2	0
117	620	44.3	0
117	620	44.4	0
117	620	44.5	0
117	620	44.6	0
117	620	44.7	0
117	620	44.8	0
117	620	44.9	0
117	620	45	0
117	620	45.1	0
117	620	45.2	0
117	620	45.3	0
117	620	45.4	0
117	620	45.5	0
117	620	45.6	0
117	620	45.7	0
117	620	45.8	0
117	620	45.9	0
117	620	46	0
117	620	46.1	0
117	620	46.2	0
117	620	46.3	0
117	620	46.4	0
117	620	46.5	0
117	620	46.6	0
117	620	46.7	0
117	620	46.8	0
117	620	46.9	0
117	620	47	0
117	620	47.1	0
117	620	47.2	0
117	620	47.3	0
117	620	47.4	0
117	620	47.5	0
116	282	20.000440335465	1264
118	282	20.000440335465	1
118	294	20.000602335465	0
119	282	20.000440335465	1264
119	294	20.000602335465	0
132	306	20.000754335465	0.000152
23	88	8.1	0
23	88	8.1	0
23	294	20.000602335465	1
23	306	20.000754335465	0
24	88	8.1	0
24	88	8.1	0
24	282	20.000440335465	1
24	293	20.000602335465	0
120	282	20.000440335465	8
31	88	8.1	0
31	88	8.1	0
31	261	20.000288335465	0
31	261	20.000288335465	0
31	271	20.000440335465	0
31	271	20.000440335465	0
31	282	20.000440335465	0
31	282	20.000440335465	2
31	293	20.000602335465	2
31	293	20.000602335465	0
31	295	20.000602335465	0
31	295	20.000602335465	0
31	307	20.000754335465	0
31	307	20.000754335465	0
31	328	20.000916625267	0
31	328	20.000916625267	0
31	333	20.001068625267	0
31	333	20.001068625267	0
32	88	8.1	15
124	294	20.000602335465	12000000
22	88	8.1	0
22	88	8.1	0
22	294	20.000602335465	1
22	306	20.000754335465	0
105	272	20.000440335465	158
105	334	20.001068625267	158
104	272	20.000440335465	158
104	334	20.001068625267	158
103	272	20.000440335465	158
103	334	20.001068625267	158
131	306	20.000754335465	158
130	306	20.000754335465	158
129	306	20.000754335465	158
102	272	20.000440335465	158
102	334	20.001068625267	158
125	294	20.000602335465	158
115	282	20.000440335465	130
106	272	20.000440335465	130
106	334	20.001068625267	130
29	88	8.1	3
28	88	8.1	0
28	88	8.1	0
28	88	8.1	2
28	295	20.000602335465	3
28	307	20.000754335465	2
30	88	8.1	1
30	261	20.000288335465	3
30	271	20.000440335465	1
30	295	20.000602335465	0
30	307	20.000754335465	1
30	328	20.000916625267	3
30	333	20.001068625267	1
126	295	20.000602335465	1
126	296	20.000602335465	2
126	306	20.000754335465	1
126	307	20.000754335465	0
110	276	20.000440335465	0.000440335465
110	284	20.000440335465	0.000440335465
110	338	20.001068625267	0.001068625267
109	276	8.2	0
109	276	8.3	0
109	276	8.4	0
109	276	8.5	0
109	276	8.6	0
109	276	8.7	0
109	276	8.8	0
109	276	8.9	0
109	276	9	0
109	276	9.1	0
109	276	9.2	0
109	276	9.3	0
109	276	9.4	0
109	276	9.5	0
109	276	9.6	0
109	276	9.7	0
109	276	9.8	0
109	276	9.9	0
109	276	10	0
109	276	10.1	0
109	276	10.2	0
109	276	10.3	0
109	276	10.4	0
109	276	10.5	0
109	276	10.6	0
109	276	10.7	0
109	276	10.8	0
109	276	10.9	0
109	276	11	0
109	276	11.1	0
109	276	11.2	0
109	276	11.3	0
109	276	11.4	0
109	276	11.5	0
109	276	11.6	0
109	276	11.7	0
109	276	11.8	0
109	276	11.9	0
109	276	12	0
109	276	12.1	0
109	276	12.2	0
109	276	12.3	0
109	276	12.4	0
109	276	12.5	0
109	276	12.6	0
109	276	12.7	0
109	276	12.8	0
109	276	12.9	0
109	276	13	0
109	276	13.1	0
109	276	13.2	0
109	276	13.3	0
109	276	13.4	0
109	276	13.5	0
109	276	13.6	0
109	276	13.7	0
109	276	13.8	0
109	276	13.9	0
109	276	14	0
109	276	14.1	0
109	276	14.2	0
109	276	14.3	0
109	276	14.4	0
109	276	14.5	0
109	276	14.6	0
109	276	14.7	0
109	276	14.8	0
109	276	14.9	0
109	276	15	0
109	276	15.1	0
109	276	15.2	0
109	276	15.3	0
109	276	15.4	0
109	276	15.5	0
109	276	15.6	0
109	276	15.7	0
109	276	15.8	0
109	276	15.9	0
109	276	16	0
109	276	16.1	0
109	276	16.2	0
109	276	16.3	0
109	276	16.4	0
109	276	16.5	0
109	276	16.6	0
109	276	16.7	0
109	276	16.8	0
109	276	16.9	0
109	276	17	0
109	276	17.1	0
109	276	17.2	0
109	276	17.3	0
109	276	17.4	0
109	276	17.5	0
109	276	17.6	0
109	276	17.7	0
109	276	17.8	0
109	276	17.9	0
109	276	18	0
109	276	18.1	0
109	276	18.2	0
109	276	18.3	0
109	276	18.4	0
109	276	18.5	0
109	276	18.6	0
109	276	18.7	0
109	276	18.8	0
109	276	18.9	0
109	276	19	0
109	276	19.1	0
109	276	19.2	0
109	276	19.3	0
109	276	19.4	0
109	276	19.5	0
109	276	19.6	0
109	276	19.7	0
109	276	19.8	0
109	276	19.9	0
109	276	20	0
109	620	20.1	24000
109	620	20.2	0
109	620	20.3	0
109	620	20.4	0
109	620	20.5	0
109	620	20.6	0
109	620	20.7	0
109	620	20.8	0
109	620	20.9	0
109	620	21	0
109	620	21.1	0
109	620	21.2	0
109	620	21.3	0
109	620	21.4	0
109	620	21.5	0
109	620	21.6	0
109	620	21.7	0
109	620	21.8	0
109	620	21.9	0
109	620	22	0
109	620	22.1	0
109	620	22.2	0
109	620	22.3	0
109	620	22.4	0
109	620	22.5	0
109	620	22.6	0
109	620	22.7	0
109	620	22.8	0
109	620	22.9	0
109	620	23	0
109	620	23.1	0
109	620	23.2	0
109	620	23.3	0
109	620	23.4	0
109	620	23.5	0
109	620	23.6	0
109	620	23.7	0
109	620	23.8	0
109	620	23.9	0
109	620	24	0
109	620	24.1	0
109	620	24.2	0
109	620	24.3	0
109	620	24.4	0
109	620	24.5	0
109	620	24.6	0
109	620	24.7	0
109	620	24.8	0
109	620	24.9	0
109	620	25	0
109	620	25.1	0
109	620	25.2	0
109	620	25.3	0
109	620	25.4	0
109	620	25.5	0
109	620	25.6	0
109	620	25.7	0
109	620	25.8	0
109	620	25.9	0
109	620	26	0
109	620	26.1	0
109	620	26.2	0
109	620	26.3	0
109	620	26.4	0
109	620	26.5	0
109	620	26.6	0
109	620	26.7	0
109	620	26.8	0
109	620	26.9	0
109	620	27	0
109	620	27.1	0
109	620	27.2	0
109	620	27.3	0
109	620	27.4	0
109	620	27.5	0
109	620	27.6	0
109	620	27.7	0
109	620	27.8	0
109	620	27.9	0
109	620	28	0
109	620	28.1	0
109	620	28.2	0
109	620	28.3	0
109	620	28.4	0
109	620	28.5	0
109	620	28.6	0
109	620	28.7	0
109	620	28.8	0
109	620	28.9	0
109	620	29	0
109	620	29.1	0
109	620	29.2	0
109	620	29.3	0
109	620	29.4	0
109	620	29.5	0
109	620	29.6	0
109	620	29.7	0
109	620	29.8	0
109	620	29.9	0
109	620	30	0
109	620	30.1	0
109	620	30.2	0
109	620	30.3	0
109	620	30.4	0
109	620	30.5	0
109	620	30.6	0
109	620	30.7	0
109	620	30.8	0
109	620	30.9	0
109	620	31	0
109	620	31.1	0
109	620	31.2	0
109	620	31.3	0
109	620	31.4	0
109	620	31.5	0
109	620	31.6	0
109	620	31.7	0
109	620	31.8	0
109	620	31.9	0
109	620	32	0
109	620	32.1	0
109	620	32.2	0
109	620	32.3	0
109	620	32.4	0
109	620	32.5	0
109	620	32.6	0
109	620	32.7	0
109	620	32.8	0
109	620	32.9	0
109	620	33	0
109	620	33.1	0
109	620	33.2	0
109	620	33.3	0
109	620	33.4	0
109	620	33.5	0
109	620	33.6	0
109	620	33.7	0
109	620	33.8	0
109	620	33.9	0
109	620	34	0
109	620	34.1	0
109	620	34.2	0
109	620	34.3	0
109	620	34.4	0
109	620	34.5	0
109	620	34.6	0
109	620	34.7	0
109	620	34.8	0
109	620	34.9	0
109	620	35	0
109	620	35.1	0
109	620	35.2	0
109	620	35.3	0
109	620	35.4	0
109	620	35.5	0
109	620	35.6	0
109	620	35.7	0
109	620	35.8	0
109	620	35.9	0
109	620	36	0
109	620	36.1	0
109	620	36.2	0
109	620	36.3	0
109	620	36.4	0
109	620	36.5	0
109	620	36.6	0
109	620	36.7	0
109	620	36.8	0
109	620	36.9	0
109	620	37	0
109	620	37.1	0
109	620	37.2	0
109	620	37.3	0
109	620	37.4	0
109	620	37.5	0
109	620	37.6	0
109	620	37.7	0
109	620	37.8	0
109	620	37.9	0
109	620	38	0
109	620	38.1	0
109	620	38.2	0
109	620	38.3	0
109	620	38.4	0
109	620	38.5	0
109	620	38.6	0
109	620	38.7	0
109	620	38.8	0
109	620	38.9	0
109	620	39	0
109	620	39.1	0
109	620	39.2	0
109	620	39.3	0
109	620	39.4	0
109	620	39.5	0
109	620	39.6	0
109	620	39.7	0
109	620	39.8	0
109	620	39.9	0
109	620	40	0
109	620	40.1	0
109	620	40.2	0
109	620	40.3	0
109	620	40.4	0
109	620	40.5	0
109	620	40.6	0
109	620	40.7	0
109	620	40.8	0
109	620	40.9	0
109	620	41	0
109	620	41.1	0
109	620	41.2	0
109	620	41.3	0
109	620	41.4	0
109	620	41.5	0
109	620	41.6	0
109	620	41.7	0
109	620	41.8	0
109	620	41.9	0
109	620	42	0
109	620	42.1	0
109	620	42.2	0
109	620	42.3	0
109	620	42.4	0
109	620	42.5	0
109	620	42.6	0
109	620	42.7	0
109	620	42.8	0
109	620	42.9	0
109	620	43	0
109	620	43.1	0
109	620	43.2	0
109	620	43.3	0
109	620	43.4	0
109	620	43.5	0
109	620	43.6	0
109	620	43.7	0
109	620	43.8	0
109	620	43.9	0
109	620	44	0
109	620	44.1	0
109	620	44.2	0
109	620	44.3	0
109	620	44.4	0
109	620	44.5	0
109	620	44.6	0
109	620	44.7	0
109	620	44.8	0
109	620	44.9	0
109	620	45	0
109	620	45.1	0
109	620	45.2	0
109	620	45.3	0
109	620	45.4	0
109	620	45.5	0
109	620	45.6	0
109	620	45.7	0
109	620	45.8	0
109	620	45.9	0
109	620	46	0
109	620	46.1	0
109	620	46.2	0
109	620	46.3	0
109	620	46.4	0
109	620	46.5	0
109	620	46.6	0
109	620	46.7	0
109	620	46.8	0
109	620	46.9	0
109	620	47	0
109	620	47.1	0
109	620	47.2	0
109	620	47.3	0
109	620	47.4	0
109	620	47.5	0
108	276	20.000440335465	100
108	284	20.000440335465	100
108	338	20.001068625267	100
111	276	20.000440335465	100
138	312	20.000754480366	108
138	320	20.000754480366	108
143	314	20.000754480366	108
36	131	12.1	0
36	312	20.000754480366	1
36	320	20.000754480366	2
37	131	12.1	0
38	131	12.1	0
144	316	20.000754480366	128
145	316	20.000754480366	128
154	325	12.2	0
154	325	12.3	0
154	325	12.4	0
154	325	12.5	0
154	325	12.6	0
154	325	12.7	0
154	325	12.8	0
154	325	12.9	0
154	325	13	0
154	325	13.1	0
154	325	13.2	0
154	325	13.3	0
154	325	13.4	0
154	325	13.5	0
154	325	13.6	0
154	325	13.7	0
154	325	13.8	0
154	325	13.9	0
154	325	14	0
154	325	14.1	0
154	325	14.2	0
154	325	14.3	0
154	325	14.4	0
154	325	14.5	0
154	325	14.6	0
154	325	14.7	0
154	325	14.8	0
154	325	14.9	0
154	325	15	0
154	325	15.1	0
154	325	15.2	0
154	325	15.3	0
154	325	15.4	0
154	325	15.5	0
154	325	15.6	0
154	325	15.7	0
154	325	15.8	0
154	325	15.9	0
154	325	16	0
154	325	16.1	0
154	325	16.2	0
154	325	16.3	0
154	325	16.4	0
154	325	16.5	0
154	325	16.6	0
154	325	16.7	0
154	325	16.8	0
154	325	16.9	0
154	325	17	0
154	325	17.1	0
154	325	17.2	0
154	325	17.3	0
154	325	17.4	0
154	325	17.5	0
154	325	17.6	0
154	325	17.7	0
154	325	17.8	0
154	325	17.9	0
154	325	18	0
154	325	18.1	0
154	325	18.2	0
154	325	18.3	0
154	325	18.4	0
154	325	18.5	0
154	325	18.6	0
154	325	18.7	0
154	325	18.8	0
154	325	18.9	0
154	325	19	0
154	325	19.1	0
154	325	19.2	0
154	325	19.3	0
154	325	19.4	0
154	325	19.5	0
154	325	19.6	0
154	325	19.7	0
154	325	19.8	0
154	325	19.9	0
154	325	20	0
154	661	20.1	12640
154	661	20.2	0
154	661	20.3	0
154	661	20.4	0
154	661	20.5	0
154	661	20.6	0
154	661	20.7	0
154	661	20.8	0
154	661	20.9	0
154	661	21	0
154	661	21.1	0
154	661	21.2	0
154	661	21.3	0
154	661	21.4	0
154	661	21.5	0
154	661	21.6	0
154	661	21.7	0
154	661	21.8	0
154	661	21.9	0
154	661	22	0
154	661	22.1	0
154	661	22.2	0
154	661	22.3	0
154	661	22.4	0
154	661	22.5	0
154	661	22.6	0
154	661	22.7	0
154	661	22.8	0
154	661	22.9	0
154	661	23	0
154	661	23.1	0
154	661	23.2	0
154	661	23.3	0
154	661	23.4	0
154	661	23.5	0
154	661	23.6	0
154	661	23.7	0
154	661	23.8	0
154	661	23.9	0
154	661	24	0
154	661	24.1	0
154	661	24.2	0
154	661	24.3	0
154	661	24.4	0
154	661	24.5	0
154	661	24.6	0
154	661	24.7	0
154	661	24.8	0
154	661	24.9	0
154	661	25	0
154	661	25.1	0
154	661	25.2	0
154	661	25.3	0
154	661	25.4	0
154	661	25.5	0
154	661	25.6	0
154	661	25.7	0
154	661	25.8	0
154	661	25.9	0
154	661	26	0
154	661	26.1	0
154	661	26.2	0
154	661	26.3	0
154	661	26.4	0
154	661	26.5	0
154	661	26.6	0
154	661	26.7	0
154	661	26.8	0
154	661	26.9	0
154	661	27	0
154	661	27.1	0
154	661	27.2	0
154	661	27.3	0
154	661	27.4	0
154	661	27.5	0
154	661	27.6	0
154	661	27.7	0
154	661	27.8	0
154	661	27.9	0
154	661	28	0
154	661	28.1	0
154	661	28.2	0
154	661	28.3	0
154	661	28.4	0
154	661	28.5	0
154	661	28.6	0
154	661	28.7	0
154	661	28.8	0
154	661	28.9	0
154	661	29	0
154	661	29.1	0
154	661	29.2	0
154	661	29.3	0
154	661	29.4	0
154	661	29.5	0
154	661	29.6	0
154	661	29.7	0
154	661	29.8	0
154	661	29.9	0
154	661	30	0
154	661	30.1	0
154	661	30.2	0
154	661	30.3	0
154	661	30.4	0
154	661	30.5	0
154	661	30.6	0
154	661	30.7	0
154	661	30.8	0
154	661	30.9	0
154	661	31	0
154	661	31.1	0
154	661	31.2	0
154	661	31.3	0
154	661	31.4	0
154	661	31.5	0
154	661	31.6	0
154	661	31.7	0
154	661	31.8	0
154	661	31.9	0
154	661	32	0
154	661	32.1	0
154	661	32.2	0
154	661	32.3	0
154	661	32.4	0
154	661	32.5	0
154	661	32.6	0
154	661	32.7	0
154	661	32.8	0
154	661	32.9	0
154	661	33	0
154	661	33.1	0
154	661	33.2	0
154	661	33.3	0
154	661	33.4	0
154	661	33.5	0
154	661	33.6	0
154	661	33.7	0
154	661	33.8	0
154	661	33.9	0
154	661	34	0
154	661	34.1	0
154	661	34.2	0
154	661	34.3	0
154	661	34.4	0
154	661	34.5	0
154	661	34.6	0
154	661	34.7	0
154	661	34.8	0
154	661	34.9	0
154	661	35	0
154	661	35.1	0
154	661	35.2	0
154	661	35.3	0
154	661	35.4	0
154	661	35.5	0
154	661	35.6	0
154	661	35.7	0
154	661	35.8	0
154	661	35.9	0
154	661	36	0
154	661	36.1	0
154	661	36.2	0
154	661	36.3	0
154	661	36.4	0
154	661	36.5	0
154	661	36.6	0
154	661	36.7	0
154	661	36.8	0
154	661	36.9	0
154	661	37	0
154	661	37.1	0
154	661	37.2	0
154	661	37.3	0
154	661	37.4	0
154	661	37.5	0
154	661	37.6	0
154	661	37.7	0
154	661	37.8	0
154	661	37.9	0
154	661	38	0
154	661	38.1	0
154	661	38.2	0
154	661	38.3	0
154	661	38.4	0
154	661	38.5	0
154	661	38.6	0
154	661	38.7	0
154	661	38.8	0
154	661	38.9	0
154	661	39	0
154	661	39.1	0
154	661	39.2	0
154	661	39.3	0
154	661	39.4	0
154	661	39.5	0
154	661	39.6	0
154	661	39.7	0
154	661	39.8	0
154	661	39.9	0
154	661	40	0
154	661	40.1	0
154	661	40.2	0
154	661	40.3	0
154	661	40.4	0
154	661	40.5	0
154	661	40.6	0
154	661	40.7	0
154	661	40.8	0
154	661	40.9	0
154	661	41	0
154	661	41.1	0
154	661	41.2	0
154	661	41.3	0
154	661	41.4	0
154	661	41.5	0
154	661	41.6	0
154	661	41.7	0
154	661	41.8	0
154	661	41.9	0
154	661	42	0
154	661	42.1	0
154	661	42.2	0
154	661	42.3	0
154	661	42.4	0
154	661	42.5	0
154	661	42.6	0
154	661	42.7	0
154	661	42.8	0
154	661	42.9	0
154	661	43	0
154	661	43.1	0
154	661	43.2	0
154	661	43.3	0
154	661	43.4	0
154	661	43.5	0
154	661	43.6	0
154	661	43.7	0
154	661	43.8	0
154	661	43.9	0
154	661	44	0
154	661	44.1	0
154	661	44.2	0
154	661	44.3	0
154	661	44.4	0
154	661	44.5	0
154	661	44.6	0
154	661	44.7	0
154	661	44.8	0
154	661	44.9	0
154	661	45	0
154	661	45.1	0
154	661	45.2	0
154	661	45.3	0
154	661	45.4	0
154	661	45.5	0
154	661	45.6	0
154	661	45.7	0
154	661	45.8	0
154	661	45.9	0
154	661	46	0
154	661	46.1	0
154	661	46.2	0
154	661	46.3	0
154	661	46.4	0
154	661	46.5	0
154	661	46.6	0
154	661	46.7	0
154	661	46.8	0
154	661	46.9	0
154	661	47	0
154	661	47.1	0
154	661	47.2	0
154	661	47.3	0
154	661	47.4	0
154	661	47.5	0
154	661	47.6	0
154	661	47.7	0
154	661	47.8	0
154	661	47.9	0
154	661	48	0
154	661	48.1	0
154	661	48.2	0
154	661	48.3	0
154	661	48.4	0
154	661	48.5	0
154	661	48.6	0
154	661	48.7	0
154	661	48.8	0
154	661	48.9	0
154	661	49	0
154	661	49.1	0
154	661	49.2	0
154	661	49.3	0
154	661	49.4	0
154	661	49.5	0
154	661	49.6	0
154	661	49.7	0
154	661	49.8	0
154	661	49.9	0
154	661	50	0
154	661	50.1	0
154	661	50.2	0
154	661	50.3	0
154	661	50.4	0
154	661	50.5	0
154	661	50.6	0
154	661	50.7	0
154	661	50.8	0
154	661	50.9	0
154	661	51	0
154	661	51.1	0
154	661	51.2	0
154	661	51.3	0
154	661	51.4	0
154	661	51.5	0
153	325	20.000916480366	1264
152	325	20.000916480366	0.000162
148	319	12.2	0
148	319	12.3	0
148	319	12.4	0
148	319	12.5	0
148	319	12.6	0
148	319	12.7	0
148	319	12.8	0
148	319	12.9	0
148	319	13	0
148	319	13.1	0
148	319	13.2	0
148	319	13.3	0
148	319	13.4	0
148	319	13.5	0
148	319	13.6	0
148	319	13.7	0
148	319	13.8	0
148	319	13.9	0
148	319	14	0
148	319	14.1	0
148	319	14.2	0
148	319	14.3	0
148	319	14.4	0
148	319	14.5	0
148	319	14.6	0
148	319	14.7	0
148	319	14.8	0
148	319	14.9	0
148	319	15	0
148	319	15.1	0
148	319	15.2	0
148	319	15.3	0
148	319	15.4	0
148	319	15.5	0
148	319	15.6	0
148	319	15.7	0
148	319	15.8	0
148	319	15.9	0
148	319	16	0
148	319	16.1	0
148	319	16.2	0
148	319	16.3	0
148	319	16.4	0
148	319	16.5	0
148	319	16.6	0
148	319	16.7	0
148	319	16.8	0
148	319	16.9	0
148	319	17	0
148	319	17.1	0
148	319	17.2	0
148	319	17.3	0
148	319	17.4	0
148	319	17.5	0
148	319	17.6	0
148	319	17.7	0
148	319	17.8	0
148	319	17.9	0
148	319	18	0
148	319	18.1	0
148	319	18.2	0
148	319	18.3	0
148	319	18.4	0
148	319	18.5	0
148	319	18.6	0
148	319	18.7	0
148	319	18.8	0
148	319	18.9	0
148	319	19	0
[...]
60	718	39.5	0
60	718	39.6	0
60	718	39.7	0
60	718	39.8	0
60	718	39.9	0
60	718	40	0
60	718	40.1	0
60	718	40.2	0
60	718	40.3	0
60	718	40.4	0
60	718	40.5	0
60	718	40.6	0
60	718	40.7	0
60	718	40.8	0
60	718	40.9	0
60	718	41	0
60	718	41.1	0
60	718	41.2	0
60	718	41.3	0
60	718	41.4	0
60	718	41.5	0
60	718	41.6	0
60	718	41.7	0
60	718	41.8	0
60	718	41.9	0
60	718	42	0
60	718	42.1	0
60	718	42.2	0
60	718	42.3	0
60	718	42.4	0
60	718	42.5	0
60	718	42.6	0
60	718	42.7	0
60	718	42.8	0
60	718	42.9	0
60	718	43	0
60	718	43.1	0
60	718	43.2	0
60	718	43.3	0
60	718	43.4	0
60	718	43.5	0
60	718	43.6	0
60	718	43.7	0
60	718	43.8	0
60	718	43.9	0
60	718	44	0
60	718	44.1	0
60	718	44.2	0
60	718	44.3	0
60	718	44.4	0
60	718	44.5	0
60	718	44.6	0
60	718	44.7	0
60	718	44.8	0
60	718	44.9	0
60	718	45	0
60	718	45.1	0
60	718	45.2	0
60	718	45.3	0
60	718	45.4	0
60	718	45.5	0
60	718	45.6	0
60	718	45.7	0
60	718	45.8	0
60	718	45.9	0
60	718	46	0
60	718	46.1	0
60	718	46.2	0
60	718	46.3	0
60	718	46.4	0
60	718	46.5	0
60	718	46.6	0
60	718	46.7	0
60	718	46.8	0
60	718	46.9	0
60	718	47	0
60	718	47.1	0
60	718	47.2	0
60	718	47.3	0
60	718	47.4	0
60	718	47.5	0
60	718	47.6	0
60	718	47.7	0
60	718	47.8	0
60	718	47.9	0
60	718	48	0
60	718	48.1	0
60	718	48.2	0
60	718	48.3	0
60	718	48.4	0
60	718	48.5	0
60	718	48.6	0
60	718	48.7	0
60	718	48.8	0
60	718	48.9	0
60	718	49	0
60	718	49.1	0
60	718	49.2	0
60	718	49.3	0
60	718	49.4	0
60	718	49.5	0
60	718	49.6	0
60	718	49.7	0
60	718	49.8	0
60	718	49.9	0
60	718	50	0
60	718	50.1	0
60	718	50.2	0
60	718	50.3	0
60	718	50.4	0
60	718	50.5	0
60	718	50.6	0
60	718	50.7	0
60	718	50.8	0
60	718	50.9	0
60	718	51	0
60	718	51.1	0
60	718	51.2	0
60	718	51.3	0
60	718	51.4	0
60	718	51.5	0
60	718	51.6	0
60	718	51.7	0
60	718	51.8	0
60	718	51.9	0
60	718	52	0
60	718	52.1	0
60	718	52.2	0
60	718	52.3	0
60	718	52.4	0
60	718	52.5	0
60	718	52.6	0
60	718	52.7	0
60	718	52.8	0
60	718	52.9	0
60	718	53	0
60	718	53.1	0
60	718	53.2	0
60	718	53.3	0
60	718	53.4	0
60	718	53.5	0
60	718	53.6	0
60	718	53.7	0
60	718	53.8	0
60	718	53.9	0
60	718	54	0
60	718	54.1	0
60	718	54.2	0
60	718	54.3	0
60	718	54.4	0
60	718	54.5	0
60	718	54.6	0
60	718	54.7	0
60	718	54.8	0
60	718	54.9	0
60	718	55	0
60	718	55.1	0
60	718	55.2	0
60	718	55.3	0
60	718	55.4	0
60	718	55.5	0
60	718	55.6	0
60	718	55.7	0
60	718	55.8	0
60	718	55.9	0
60	718	56	0
60	718	56.1	0
60	718	56.2	0
60	718	56.3	0
60	718	56.4	0
60	718	56.5	0
60	718	56.6	0
60	718	56.7	0
60	718	56.8	0
60	718	56.9	0
60	718	57	0
60	718	57.1	0
60	718	57.2	0
59	232	20	1264
59	232	20	1264
58	232	20	0
58	232	20	0
50	220	0.2	0
50	220	0.3	0
50	220	0.4	0
50	220	0.5	0
50	220	0.6	0
50	220	0.7	0
50	220	0.8	0
50	220	0.9	0
50	220	1	0
50	220	1.1	0
50	220	1.2	0
50	220	1.3	0
50	220	1.4	0
50	220	1.5	0
50	220	1.6	0
50	220	1.7	0
50	220	1.8	0
50	220	1.9	0
50	220	2	0
50	220	2.1	0
50	220	2.2	0
50	220	2.3	0
50	220	2.4	0
50	220	2.5	0
50	220	2.6	0
50	220	2.7	0
50	220	2.8	0
50	220	2.9	0
50	220	3	0
50	220	3.1	0
50	220	3.2	0
50	220	3.3	0
50	220	3.4	0
50	220	3.5	0
50	220	3.6	0
50	220	3.7	0
50	220	3.8	0
50	220	3.9	0
50	220	4	0
50	220	4.1	0
50	220	4.2	0
50	220	4.3	0
50	220	4.4	0
50	220	4.5	0
50	220	4.6	0
50	220	4.7	0
50	220	4.8	0
50	220	4.9	0
50	220	5	0
50	220	5.1	0
50	220	5.2	0
50	220	5.3	0
50	220	5.4	0
50	220	5.5	0
50	220	5.6	0
50	220	5.7	0
50	220	5.8	0
50	220	5.9	0
50	220	6	0
50	220	6.1	0
50	220	6.2	0
50	220	6.3	0
50	220	6.4	0
50	220	6.5	0
50	220	6.6	0
50	220	6.7	0
50	220	6.8	0
50	220	6.9	0
50	220	7	0
50	220	7.1	0
50	220	7.2	0
50	220	7.3	0
50	220	7.4	0
50	220	7.5	0
50	220	7.6	0
50	220	7.7	0
50	220	7.8	0
50	220	7.9	0
50	220	8	0
50	220	8.1	0
50	220	8.2	0
50	220	8.3	0
50	220	8.4	0
50	220	8.5	0
50	220	8.6	0
50	220	8.7	0
50	220	8.8	0
50	220	8.9	0
50	220	9	0
50	220	9.1	0
50	220	9.2	0
50	220	9.3	0
50	220	9.4	0
50	220	9.5	0
50	220	9.6	0
50	220	9.7	0
50	220	9.8	0
50	220	9.9	0
50	220	10	0
50	220	10.1	0
50	220	10.2	0
50	220	10.3	0
50	220	10.4	0
50	220	10.5	0
50	220	10.6	0
50	220	10.7	0
50	220	10.8	0
50	220	10.9	0
50	220	11	0
50	220	11.1	0
50	220	11.2	0
50	220	11.3	0
50	220	11.4	0
50	220	11.5	0
50	220	11.6	0
50	220	11.7	0
50	220	11.8	0
50	220	11.9	0
50	220	12	0
50	220	12.1	0
50	220	12.2	0
50	220	12.3	0
50	220	12.4	0
50	220	12.5	0
50	220	12.6	0
50	220	12.7	0
50	220	12.8	0
50	220	12.9	0
50	220	13	0
50	220	13.1	0
50	220	13.2	0
50	220	13.3	0
50	220	13.4	0
50	220	13.5	0
50	220	13.6	0
50	220	13.7	0
50	220	13.8	0
50	220	13.9	0
50	220	14	0
50	220	14.1	0
50	220	14.2	0
50	220	14.3	0
50	220	14.4	0
50	220	14.5	0
50	220	14.6	0
50	220	14.7	0
50	220	14.8	0
50	220	14.9	0
50	220	15	0
50	220	15.1	0
50	220	15.2	0
50	220	15.3	0
50	220	15.4	0
50	220	15.5	0
50	220	15.6	0
50	220	15.7	0
50	220	15.8	0
50	220	15.9	0
50	220	16	0
50	220	16.1	0
50	220	16.2	0
50	220	16.3	0
50	220	16.4	0
50	220	16.5	0
50	220	16.6	0
50	220	16.7	0
50	220	16.8	0
50	220	16.9	0
50	220	17	0
50	220	17.1	0
50	220	17.2	0
50	220	17.3	0
50	220	17.4	0
50	220	17.5	0
50	220	17.6	0
50	220	17.7	0
50	220	17.8	0
50	220	17.9	0
50	220	18	0
50	220	18.1	0
50	220	18.2	0
50	220	18.3	0
50	220	18.4	0
50	220	18.5	0
50	220	18.6	0
50	220	18.7	0
50	220	18.8	0
50	220	18.9	0
50	220	19	0
50	220	19.1	0
50	220	19.2	0
50	220	19.3	0
50	220	19.4	0
50	220	19.5	0
50	220	19.6	0
50	220	19.7	0
50	220	19.8	0
50	220	19.9	0
50	220	20	0
50	718	20.1	25280
50	718	20.2	0
50	718	20.3	0
50	718	20.4	0
50	718	20.5	0
50	718	20.6	0
50	718	20.7	0
50	718	20.8	0
50	718	20.9	0
50	718	21	0
50	718	21.1	0
50	718	21.2	0
50	718	21.3	0
50	718	21.4	0
50	718	21.5	0
50	718	21.6	0
50	718	21.7	0
50	718	21.8	0
50	718	21.9	0
50	718	22	0
50	718	22.1	0
50	718	22.2	0
50	718	22.3	0
50	718	22.4	0
50	718	22.5	0
50	718	22.6	0
50	718	22.7	0
50	718	22.8	0
50	718	22.9	0
50	718	23	0
50	718	23.1	0
50	718	23.2	0
50	718	23.3	0
50	718	23.4	0
50	718	23.5	0
50	718	23.6	0
50	718	23.7	0
50	718	23.8	0
50	718	23.9	0
50	718	24	0
50	718	24.1	0
50	718	24.2	0
50	718	24.3	0
50	718	24.4	0
50	718	24.5	0
50	718	24.6	0
50	718	24.7	0
50	718	24.8	0
50	718	24.9	0
50	718	25	0
50	718	25.1	0
50	718	25.2	0
50	718	25.3	0
50	718	25.4	0
50	718	25.5	0
50	718	25.6	0
50	718	25.7	0
50	718	25.8	0
50	718	25.9	0
50	718	26	0
50	718	26.1	0
50	718	26.2	0
50	718	26.3	0
50	718	26.4	0
50	718	26.5	0
50	718	26.6	0
50	718	26.7	0
50	718	26.8	0
50	718	26.9	0
50	718	27	0
50	718	27.1	0
50	718	27.2	0
50	718	27.3	0
50	718	27.4	0
50	718	27.5	0
50	718	27.6	0
50	718	27.7	0
50	718	27.8	0
50	718	27.9	0
50	718	28	0
50	718	28.1	0
50	718	28.2	0
50	718	28.3	0
50	718	28.4	0
50	718	28.5	0
50	718	28.6	0
50	718	28.7	0
50	718	28.8	0
50	718	28.9	0
50	718	29	0
50	718	29.1	0
50	718	29.2	0
50	718	29.3	0
50	718	29.4	0
50	718	29.5	0
50	718	29.6	0
50	718	29.7	0
50	718	29.8	0
50	718	29.9	0
50	718	30	0
50	718	30.1	0
50	718	30.2	0
50	718	30.3	0
50	718	30.4	0
50	718	30.5	0
50	718	30.6	0
50	718	30.7	0
50	718	30.8	0
50	718	30.9	0
50	718	31	0
50	718	31.1	0
50	718	31.2	0
50	718	31.3	0
50	718	31.4	0
50	718	31.5	0
50	718	31.6	0
50	718	31.7	0
50	718	31.8	0
50	718	31.9	0
50	718	32	0
50	718	32.1	0
50	718	32.2	0
50	718	32.3	0
50	718	32.4	0
50	718	32.5	0
50	718	32.6	0
50	718	32.7	0
50	718	32.8	0
50	718	32.9	0
50	718	33	0
50	718	33.1	0
50	718	33.2	0
50	718	33.3	0
50	718	33.4	0
50	718	33.5	0
50	718	33.6	0
50	718	33.7	0
50	718	33.8	0
50	718	33.9	0
50	718	34	0
50	718	34.1	0
50	718	34.2	0
50	718	34.3	0
50	718	34.4	0
50	718	34.5	0
50	718	34.6	0
50	718	34.7	0
50	718	34.8	0
50	718	34.9	0
50	718	35	0
50	718	35.1	0
50	718	35.2	0
50	718	35.3	0
50	718	35.4	0
50	718	35.5	0
50	718	35.6	0
50	718	35.7	0
50	718	35.8	0
50	718	35.9	0
50	718	36	0
50	718	36.1	0
50	718	36.2	0
50	718	36.3	0
50	718	36.4	0
50	718	36.5	0
50	718	36.6	0
50	718	36.7	0
50	718	36.8	0
50	718	36.9	0
50	718	37	0
50	718	37.1	0
50	718	37.2	0
50	718	37.3	0
50	718	37.4	0
50	718	37.5	0
50	718	37.6	0
50	718	37.7	0
50	718	37.8	0
50	718	37.9	0
50	718	38	0
50	718	38.1	0
50	718	38.2	0
50	718	38.3	0
50	718	38.4	0
50	718	38.5	0
50	718	38.6	0
50	718	38.7	0
50	718	38.8	0
50	718	38.9	0
50	718	39	0
50	718	39.1	0
50	718	39.2	0
50	718	39.3	0
50	718	39.4	0
50	718	39.5	0
50	718	39.6	0
50	718	39.7	0
50	718	39.8	0
50	718	39.9	0
50	718	40	0
50	718	40.1	0
50	718	40.2	0
50	718	40.3	0
50	718	40.4	0
50	718	40.5	0
50	718	40.6	0
50	718	40.7	0
50	718	40.8	0
50	718	40.9	0
50	718	41	0
50	718	41.1	0
50	718	41.2	0
50	718	41.3	0
50	718	41.4	0
50	718	41.5	0
50	718	41.6	0
50	718	41.7	0
50	718	41.8	0
50	718	41.9	0
50	718	42	0
50	718	42.1	0
50	718	42.2	0
50	718	42.3	0
50	718	42.4	0
50	718	42.5	0
50	718	42.6	0
50	718	42.7	0
50	718	42.8	0
50	718	42.9	0
50	718	43	0
50	718	43.1	0
50	718	43.2	0
50	718	43.3	0
50	718	43.4	0
50	718	43.5	0
50	718	43.6	0
50	718	43.7	0
50	718	43.8	0
50	718	43.9	0
50	718	44	0
50	718	44.1	0
50	718	44.2	0
50	718	44.3	0
50	718	44.4	0
50	718	44.5	0
50	718	44.6	0
50	718	44.7	0
50	718	44.8	0
50	718	44.9	0
50	718	45	0
50	718	45.1	0
50	718	45.2	0
50	718	45.3	0
50	718	45.4	0
50	718	45.5	0
50	718	45.6	0
50	718	45.7	0
50	718	45.8	0
50	718	45.9	0
50	718	46	0
50	718	46.1	0
50	718	46.2	0
50	718	46.3	0
50	718	46.4	0
50	718	46.5	0
50	718	46.6	0
50	718	46.7	0
50	718	46.8	0
50	718	46.9	0
50	718	47	0
50	718	47.1	0
50	718	47.2	0
50	718	47.3	0
50	718	47.4	0
50	718	47.5	0
50	718	47.6	0
50	718	47.7	0
50	718	47.8	0
50	718	47.9	0
50	718	48	0
50	718	48.1	0
50	718	48.2	0
50	718	48.3	0
50	718	48.4	0
50	718	48.5	0
50	718	48.6	0
50	718	48.7	0
50	718	48.8	0
50	718	48.9	0
50	718	49	0
50	718	49.1	0
50	718	49.2	0
50	718	49.3	0
50	718	49.4	0
50	718	49.5	0
50	718	49.6	0
50	718	49.7	0
50	718	49.8	0
50	718	49.9	0
50	718	50	0
50	718	50.1	0
50	718	50.2	0
50	718	50.3	0
50	718	50.4	0
50	718	50.5	0
50	718	50.6	0
50	718	50.7	0
50	718	50.8	0
50	718	50.9	0
50	718	51	0
50	718	51.1	0
50	718	51.2	0
50	718	51.3	0
50	718	51.4	0
50	718	51.5	0
50	718	51.6	0
50	718	51.7	0
50	718	51.8	0
50	718	51.9	0
50	718	52	0
50	718	52.1	0
50	718	52.2	0
50	718	52.3	0
50	718	52.4	0
50	718	52.5	0
50	718	52.6	0
50	718	52.7	0
50	718	52.8	0
50	718	52.9	0
50	718	53	0
50	718	53.1	0
50	718	53.2	0
50	718	53.3	0
50	718	53.4	0
50	718	53.5	0
50	718	53.6	0
50	718	53.7	0
50	718	53.8	0
50	718	53.9	0
50	718	54	0
50	718	54.1	0
50	718	54.2	0
50	718	54.3	0
50	718	54.4	0
50	718	54.5	0
50	718	54.6	0
50	718	54.7	0
50	718	54.8	0
50	718	54.9	0
50	718	55	0
50	718	55.1	0
50	718	55.2	0
50	718	55.3	0
50	718	55.4	0
50	718	55.5	0
50	718	55.6	0
50	718	55.7	0
50	718	55.8	0
50	718	55.9	0
50	718	56	0
50	718	56.1	0
50	718	56.2	0
50	718	56.3	0
50	718	56.4	0
50	718	56.5	0
50	718	56.6	0
50	718	56.7	0
50	718	56.8	0
50	718	56.9	0
50	718	57	0
50	718	57.1	0
50	718	57.2	0
49	220	20	1264
49	228	20	1264
51	220	20	1
51	228	20	2
51	232	20	1
51	232	20	0
52	220	20	1264
52	228	20	2528
52	232	20	1264
52	232	20	0
67	238	20.000152	0.000152
67	300	20.000663304312	0.000663304312
1	2	0.1	0
1	2	0.1	0
1	232	20	1
1	232	20	2
1	238	20.000152	1
1	300	20.000663304312	0
2	2	0.1	0
2	2	0.1	0
2	220	20	1
2	231	20	0
2	239	20.000152	1
2	260	20.000288304312	0
2	265	20.000440304312	1
2	286	20.000511304312	0
53	220	20	4
53	238	20.000152	7
9	2	0.1	0
9	2	0.1	0
9	220	20	0
9	220	20	2
9	231	20	2
9	231	20	0
9	233	20	0
9	233	20	0
9	238	20.000152	0
9	238	20.000152	1
9	239	20.000152	1
9	239	20.000152	2
9	260	20.000288304312	2
9	260	20.000288304312	1
9	265	20.000440304312	1
9	265	20.000440304312	2
9	286	20.000511304312	2
9	286	20.000511304312	0
9	288	20.000511304312	0
9	288	20.000511304312	0
9	301	20.000663304312	0
9	301	20.000663304312	0
10	2	0.1	15
61	232	20	12000000
61	287	20.000511304312	12000000
0	2	0.1	0
0	2	0.1	0
0	232	20	1
0	238	20.000152	0
0	287	20.000511304312	1
0	300	20.000663304312	0
100	266	20.000440304312	158
99	266	20.000440304312	158
98	266	20.000440304312	158
66	238	20.000152	158
66	300	20.000663304312	158
65	238	20.000152	158
65	300	20.000663304312	158
64	238	20.000152	158
64	300	20.000663304312	158
97	266	20.000440304312	158
62	232	20	158
62	287	20.000511304312	158
48	220	20	130
48	228	20	130
101	266	20.000440304312	130
7	2	0.1	3
6	2	0.1	0
6	2	0.1	0
6	2	0.1	2
6	233	20	3
6	239	20.000152	2
6	288	20.000511304312	3
6	301	20.000663304312	2
8	2	0.1	1
8	233	20	0
8	239	20.000152	1
8	260	20.000288304312	3
8	265	20.000440304312	1
8	288	20.000511304312	0
8	301	20.000663304312	1
63	233	20	1
63	234	20	2
63	238	20.000152	1
63	239	20.000152	0
63	288	20.000511304312	1
63	289	20.000511304312	2
63	300	20.000663304312	1
63	301	20.000663304312	0
57	222	20	0
57	230	20	0
57	270	20.000440304312	0.000440304312
56	222	0.2	0
56	222	0.3	0
56	222	0.4	0
56	222	0.5	0
56	222	0.6	0
56	222	0.7	0
56	222	0.8	0
56	222	0.9	0
56	222	1	0
56	222	1.1	0
56	222	1.2	0
56	222	1.3	0
56	222	1.4	0
56	222	1.5	0
56	222	1.6	0
56	222	1.7	0
56	222	1.8	0
56	222	1.9	0
56	222	2	0
56	222	2.1	0
56	222	2.2	0
56	222	2.3	0
56	222	2.4	0
56	222	2.5	0
56	222	2.6	0
56	222	2.7	0
56	222	2.8	0
56	222	2.9	0
56	222	3	0
56	222	3.1	0
56	222	3.2	0
56	222	3.3	0
56	222	3.4	0
56	222	3.5	0
56	222	3.6	0
56	222	3.7	0
56	222	3.8	0
56	222	3.9	0
56	222	4	0
56	222	4.1	0
56	222	4.2	0
56	222	4.3	0
56	222	4.4	0
56	222	4.5	0
56	222	4.6	0
56	222	4.7	0
56	222	4.8	0
56	222	4.9	0
56	222	5	0
56	222	5.1	0
56	222	5.2	0
56	222	5.3	0
56	222	5.4	0
56	222	5.5	0
56	222	5.6	0
56	222	5.7	0
56	222	5.8	0
56	222	5.9	0
56	222	6	0
56	222	6.1	0
56	222	6.2	0
56	222	6.3	0
56	222	6.4	0
56	222	6.5	0
56	222	6.6	0
56	222	6.7	0
56	222	6.8	0
56	222	6.9	0
56	222	7	0
56	222	7.1	0
56	222	7.2	0
56	222	7.3	0
56	222	7.4	0
56	222	7.5	0
56	222	7.6	0
56	222	7.7	0
56	222	7.8	0
56	222	7.9	0
56	222	8	0
56	222	8.1	0
56	222	8.2	0
56	222	8.3	0
56	222	8.4	0
56	222	8.5	0
56	222	8.6	0
56	222	8.7	0
56	222	8.8	0
56	222	8.9	0
56	222	9	0
56	222	9.1	0
56	222	9.2	0
56	222	9.3	0
56	222	9.4	0
56	222	9.5	0
56	222	9.6	0
56	222	9.7	0
56	222	9.8	0
56	222	9.9	0
56	222	10	0
56	222	10.1	0
56	222	10.2	0
56	222	10.3	0
56	222	10.4	0
56	222	10.5	0
56	222	10.6	0
56	222	10.7	0
56	222	10.8	0
56	222	10.9	0
56	222	11	0
56	222	11.1	0
56	222	11.2	0
56	222	11.3	0
56	222	11.4	0
56	222	11.5	0
56	222	11.6	0
56	222	11.7	0
56	222	11.8	0
56	222	11.9	0
56	222	12	0
56	222	12.1	0
56	222	12.2	0
56	222	12.3	0
56	222	12.4	0
56	222	12.5	0
56	222	12.6	0
56	222	12.7	0
56	222	12.8	0
56	222	12.9	0
56	222	13	0
56	222	13.1	0
56	222	13.2	0
56	222	13.3	0
56	222	13.4	0
56	222	13.5	0
56	222	13.6	0
56	222	13.7	0
56	222	13.8	0
56	222	13.9	0
56	222	14	0
56	222	14.1	0
56	222	14.2	0
56	222	14.3	0
56	222	14.4	0
56	222	14.5	0
56	222	14.6	0
56	222	14.7	0
56	222	14.8	0
56	222	14.9	0
56	222	15	0
56	222	15.1	0
56	222	15.2	0
56	222	15.3	0
56	222	15.4	0
56	222	15.5	0
56	222	15.6	0
56	222	15.7	0
56	222	15.8	0
56	222	15.9	0
56	222	16	0
56	222	16.1	0
56	222	16.2	0
56	222	16.3	0
56	222	16.4	0
56	222	16.5	0
56	222	16.6	0
56	222	16.7	0
56	222	16.8	0
56	222	16.9	0
56	222	17	0
56	222	17.1	0
56	222	17.2	0
56	222	17.3	0
56	222	17.4	0
56	222	17.5	0
56	222	17.6	0
56	222	17.7	0
56	222	17.8	0
56	222	17.9	0
56	222	18	0
56	222	18.1	0
56	222	18.2	0
56	222	18.3	0
56	222	18.4	0
56	222	18.5	0
56	222	18.6	0
56	222	18.7	0
56	222	18.8	0
56	222	18.9	0
56	222	19	0
56	222	19.1	0
56	222	19.2	0
56	222	19.3	0
56	222	19.4	0
56	222	19.5	0
56	222	19.6	0
56	222	19.7	0
56	222	19.8	0
56	222	19.9	0
56	222	20	0
56	718	20.1	24000
56	718	20.2	0
56	718	20.3	0
56	718	20.4	0
56	718	20.5	0
56	718	20.6	0
56	718	20.7	0
56	718	20.8	0
56	718	20.9	0
56	718	21	0
56	718	21.1	0
56	718	21.2	0
56	718	21.3	0
56	718	21.4	0
56	718	21.5	0
56	718	21.6	0
56	718	21.7	0
56	718	21.8	0
56	718	21.9	0
56	718	22	0
56	718	22.1	0
56	718	22.2	0
56	718	22.3	0
56	718	22.4	0
56	718	22.5	0
56	718	22.6	0
56	718	22.7	0
56	718	22.8	0
56	718	22.9	0
56	718	23	0
56	718	23.1	0
56	718	23.2	0
56	718	23.3	0
56	718	23.4	0
56	718	23.5	0
56	718	23.6	0
56	718	23.7	0
56	718	23.8	0
56	718	23.9	0
56	718	24	0
56	718	24.1	0
56	718	24.2	0
56	718	24.3	0
56	718	24.4	0
56	718	24.5	0
56	718	24.6	0
56	718	24.7	0
56	718	24.8	0
56	718	24.9	0
56	718	25	0
56	718	25.1	0
56	718	25.2	0
56	718	25.3	0
56	718	25.4	0
56	718	25.5	0
56	718	25.6	0
56	718	25.7	0
56	718	25.8	0
56	718	25.9	0
56	718	26	0
56	718	26.1	0
56	718	26.2	0
56	718	26.3	0
56	718	26.4	0
56	718	26.5	0
56	718	26.6	0
56	718	26.7	0
56	718	26.8	0
56	718	26.9	0
56	718	27	0
56	718	27.1	0
56	718	27.2	0
56	718	27.3	0
56	718	27.4	0
56	718	27.5	0
56	718	27.6	0
56	718	27.7	0
56	718	27.8	0
56	718	27.9	0
56	718	28	0
56	718	28.1	0
56	718	28.2	0
56	718	28.3	0
56	718	28.4	0
56	718	28.5	0
56	718	28.6	0
56	718	28.7	0
56	718	28.8	0
56	718	28.9	0
56	718	29	0
56	718	29.1	0
56	718	29.2	0
56	718	29.3	0
56	718	29.4	0
56	718	29.5	0
56	718	29.6	0
56	718	29.7	0
56	718	29.8	0
56	718	29.9	0
56	718	30	0
56	718	30.1	0
56	718	30.2	0
56	718	30.3	0
56	718	30.4	0
56	718	30.5	0
56	718	30.6	0
56	718	30.7	0
56	718	30.8	0
56	718	30.9	0
56	718	31	0
56	718	31.1	0
56	718	31.2	0
56	718	31.3	0
56	718	31.4	0
56	718	31.5	0
56	718	31.6	0
56	718	31.7	0
56	718	31.8	0
56	718	31.9	0
56	718	32	0
56	718	32.1	0
56	718	32.2	0
56	718	32.3	0
56	718	32.4	0
56	718	32.5	0
56	718	32.6	0
56	718	32.7	0
56	718	32.8	0
56	718	32.9	0
56	718	33	0
56	718	33.1	0
56	718	33.2	0
56	718	33.3	0
56	718	33.4	0
56	718	33.5	0
56	718	33.6	0
56	718	33.7	0
56	718	33.8	0
56	718	33.9	0
56	718	34	0
56	718	34.1	0
56	718	34.2	0
56	718	34.3	0
56	718	34.4	0
56	718	34.5	0
56	718	34.6	0
56	718	34.7	0
56	718	34.8	0
56	718	34.9	0
56	718	35	0
56	718	35.1	0
56	718	35.2	0
56	718	35.3	0
56	718	35.4	0
56	718	35.5	0
56	718	35.6	0
56	718	35.7	0
56	718	35.8	0
56	718	35.9	0
56	718	36	0
56	718	36.1	0
56	718	36.2	0
56	718	36.3	0
56	718	36.4	0
56	718	36.5	0
56	718	36.6	0
56	718	36.7	0
56	718	36.8	0
56	718	36.9	0
56	718	37	0
56	718	37.1	0
56	718	37.2	0
56	718	37.3	0
56	718	37.4	0
56	718	37.5	0
56	718	37.6	0
56	718	37.7	0
56	718	37.8	0
56	718	37.9	0
56	718	38	0
56	718	38.1	0
56	718	38.2	0
56	718	38.3	0
56	718	38.4	0
56	718	38.5	0
56	718	38.6	0
56	718	38.7	0
56	718	38.8	0
56	718	38.9	0
56	718	39	0
56	718	39.1	0
56	718	39.2	0
56	718	39.3	0
56	718	39.4	0
56	718	39.5	0
56	718	39.6	0
56	718	39.7	0
56	718	39.8	0
56	718	39.9	0
56	718	40	0
56	718	40.1	0
56	718	40.2	0
56	718	40.3	0
56	718	40.4	0
56	718	40.5	0
56	718	40.6	0
56	718	40.7	0
56	718	40.8	0
56	718	40.9	0
56	718	41	0
56	718	41.1	0
56	718	41.2	0
56	718	41.3	0
56	718	41.4	0
56	718	41.5	0
56	718	41.6	0
56	718	41.7	0
56	718	41.8	0
56	718	41.9	0
56	718	42	0
56	718	42.1	0
56	718	42.2	0
56	718	42.3	0
56	718	42.4	0
56	718	42.5	0
56	718	42.6	0
56	718	42.7	0
56	718	42.8	0
56	718	42.9	0
56	718	43	0
56	718	43.1	0
56	718	43.2	0
56	718	43.3	0
56	718	43.4	0
56	718	43.5	0
56	718	43.6	0
56	718	43.7	0
56	718	43.8	0
56	718	43.9	0
56	718	44	0
56	718	44.1	0
56	718	44.2	0
56	718	44.3	0
56	718	44.4	0
56	718	44.5	0
56	718	44.6	0
56	718	44.7	0
56	718	44.8	0
56	718	44.9	0
56	718	45	0
56	718	45.1	0
56	718	45.2	0
56	718	45.3	0
56	718	45.4	0
56	718	45.5	0
56	718	45.6	0
56	718	45.7	0
56	718	45.8	0
56	718	45.9	0
56	718	46	0
56	718	46.1	0
56	718	46.2	0
56	718	46.3	0
56	718	46.4	0
56	718	46.5	0
56	718	46.6	0
56	718	46.7	0
56	718	46.8	0
56	718	46.9	0
56	718	47	0
56	718	47.1	0
56	718	47.2	0
56	718	47.3	0
56	718	47.4	0
56	718	47.5	0
56	718	47.6	0
56	718	47.7	0
56	718	47.8	0
56	718	47.9	0
56	718	48	0
56	718	48.1	0
56	718	48.2	0
56	718	48.3	0
56	718	48.4	0
56	718	48.5	0
56	718	48.6	0
56	718	48.7	0
56	718	48.8	0
56	718	48.9	0
56	718	49	0
56	718	49.1	0
56	718	49.2	0
56	718	49.3	0
56	718	49.4	0
56	718	49.5	0
56	718	49.6	0
56	718	49.7	0
56	718	49.8	0
56	718	49.9	0
56	718	50	0
56	718	50.1	0
56	718	50.2	0
56	718	50.3	0
56	718	50.4	0
56	718	50.5	0
56	718	50.6	0
56	718	50.7	0
56	718	50.8	0
56	718	50.9	0
56	718	51	0
56	718	51.1	0
56	718	51.2	0
56	718	51.3	0
56	718	51.4	0
56	718	51.5	0
56	718	51.6	0
56	718	51.7	0
56	718	51.8	0
56	718	51.9	0
56	718	52	0
56	718	52.1	0
56	718	52.2	0
56	718	52.3	0
56	718	52.4	0
56	718	52.5	0
56	718	52.6	0
56	718	52.7	0
56	718	52.8	0
56	718	52.9	0
56	718	53	0
56	718	53.1	0
56	718	53.2	0
56	718	53.3	0
56	718	53.4	0
56	718	53.5	0
56	718	53.6	0
56	718	53.7	0
56	718	53.8	0
56	718	53.9	0
56	718	54	0
56	718	54.1	0
56	718	54.2	0
56	718	54.3	0
56	718	54.4	0
56	718	54.5	0
56	718	54.6	0
56	718	54.7	0
56	718	54.8	0
56	718	54.9	0
56	718	55	0
56	718	55.1	0
56	718	55.2	0
56	718	55.3	0
56	718	55.4	0
56	718	55.5	0
56	718	55.6	0
56	718	55.7	0
56	718	55.8	0
56	718	55.9	0
56	718	56	0
56	718	56.1	0
56	718	56.2	0
56	718	56.3	0
56	718	56.4	0
56	718	56.5	0
56	718	56.6	0
56	718	56.7	0
56	718	56.8	0
56	718	56.9	0
56	718	57	0
56	718	57.1	0
56	718	57.2	0
55	222	20	100
55	230	20	100
55	270	20.000440304312	100
44	213	20	100
44	222	20	100

