<<<<<<< HEAD
file 2981047 1715297856                                         
version 3
run plain-0-20240509-19:34:00-6992
attr configname plain
attr datetime 20240509-19:34:00
attr datetimef 20240509-193400
=======
file 44369 1713809516                                           
version 3
run plain-0-20240422-20:10:25-9356
attr configname plain
attr datetime 20240422-20:10:25
attr datetimef 20240422-201025
>>>>>>> cb40c32b5605b182eb28a7bfd6f1ddcc854b381a
attr experiment plain
attr inifile omnetpp.ini
attr iterationvars ""
attr iterationvarsd ""
attr iterationvarsf ""
attr measurement ""
attr network Scenario
<<<<<<< HEAD
attr processid 6992
=======
attr processid 9356
>>>>>>> cb40c32b5605b182eb28a7bfd6f1ddcc854b381a
attr repetition 0
attr replication #0
attr resultdir results
attr runnumber 0
attr seedset 0
config image-path ../../images:../../../inet4.4/images:../../../veins-veins-5.2/images
config network Scenario
config sim-time-limit 60s
config debug-on-errors true
config cmdenv-express-mode true
config image-path ../../../../images
<<<<<<< HEAD
config *.*.isBlackholeAttack true
=======
config *.node[1].isMalicious true
>>>>>>> cb40c32b5605b182eb28a7bfd6f1ddcc854b381a
config *.node[*].numApps 1
config *.node[*].app[0].typename org.car2x.veins.subprojects.veins_inet.VeinsInetSampleApplication
config *.node[*].app[0].interface "\"wlan0\""
config *.node[*].wlan[0].opMode "\"p\""
config *.node[*].wlan[0].radio.typename Ieee80211DimensionalRadio
config *.node[*].wlan[0].radio.bandName "\"5.9 GHz\""
config *.node[*].wlan[0].radio.channelNumber 3
config *.node[*].wlan[0].radio.transmitter.power 20mW
config *.node[*].wlan[0].radio.bandwidth "10 MHz"
config *.node[*].wlan[*].radio.antenna.mobility.typename AttachedMobility
config *.node[*].wlan[*].radio.antenna.mobility.mobilityModule "\"^.^.^.^.mobility\""
config *.node[*].wlan[*].radio.antenna.mobility.offsetX -2.5m
config *.node[*].wlan[*].radio.antenna.mobility.offsetZ 1.5m
config *.node[*].wlan[*].radio.antenna.mobility.constraintAreaMinX 0m
config *.node[*].wlan[*].radio.antenna.mobility.constraintAreaMaxX 0m
config *.node[*].wlan[*].radio.antenna.mobility.constraintAreaMinY 0m
config *.node[*].wlan[*].radio.antenna.mobility.constraintAreaMaxY 0m
config *.node[*].wlan[*].radio.antenna.mobility.constraintAreaMinZ 0m
config *.node[*].wlan[*].radio.antenna.mobility.constraintAreaMaxZ 0m
config *.node[*].ipv4.configurator.typename HostAutoConfigurator
config *.node[*].ipv4.configurator.interfaces "\"wlan0\""
config *.node[*].ipv4.configurator.mcastGroups "\"224.0.0.1\""
config *.node[*].mobility.typename VeinsInetMobility
config *.manager.updateInterval 0.1s
config *.manager.host "\"localhost\""
config *.manager.port 9999
config *.manager.autoShutdown true
config *.manager.launchConfig "xmldoc(\"square.launchd.xml\")"
config *.manager.moduleType "\"org.car2x.veins.subprojects.veins_inet.VeinsInetCar\""
config *.physicalEnvironment.config "xmldoc(\"obstacles.xml\")"
config *.radioMedium.obstacleLoss.typename IdealObstacleLoss
config **.vector-recording true

vector 0 Scenario.node[0].wlan[0].mac.dcf frameSequenceActive:vector ETV
attr autoWarmupFilter false
attr interpolationmode sample-hold
attr recordingmode vector
attr source warmup(count(frameSequenceStarted)-count(frameSequenceFinished))
attr title "frame sequence active"
vector 1 Scenario.node[0].wlan[0].mac.dcf.channelAccess.inProgressFrames queueLength:vector ETV
attr autoWarmupFilter false
attr interpolationmode sample-hold
attr recordingmode vector
attr source "warmup(count(packetEnqueued) - count(packetDequeued))"
attr title "queue length"
vector 2 Scenario.node[0].wlan[0].mac.dcf.channelAccess.contention backoffActive:vector ETV
attr autoWarmupFilter false
attr interpolationmode sample-hold
attr recordingmode vector
attr source warmup(count(backoffStarted)-count(backoffStopped))
attr title "backoff active"
vector 3 Scenario.node[0].udp passedUpPk:vector(count) ETV
attr interpolationmode none
attr recordingmode vector(count)
attr source packetSentToUpper
attr title "packets passed up, count"
vector 4 Scenario.node[0].udp droppedPkWrongPort:vector(count) ETV
attr interpolationmode none
attr recordingmode vector(count)
attr source packetDropReasonIsNoPortFound(packetDropped)
attr title "packets dropped (wrong port), count"
vector 5 Scenario.node[0].udp droppedPkBadChecksum:vector(count) ETV
attr interpolationmode none
attr recordingmode vector(count)
attr source packetDropReasonIsIncorrectlyReceived(packetDropped)
attr title "packets dropped (checksum error), count"
vector 6 Scenario.node[0].wlan[0].radio radioMode:vector ETV
attr interpolationmode sample-hold
attr recordingmode vector
attr source radioModeChanged
attr title "Radio mode"
vector 7 Scenario.node[0].wlan[0].radio radioChannel:vector ETV
attr interpolationmode sample-hold
attr recordingmode vector
attr source radioChannelChanged
attr title "Radio channel"
vector 8 Scenario.node[0].wlan[0].radio receptionState:vector ETV
attr interpolationmode sample-hold
attr recordingmode vector
attr source receptionStateChanged
attr title "Radio reception state"
vector 9 Scenario.node[0].wlan[0].mac.dcf.channelAccess.contention stateChanged:vector ETV
attr enum IDLE,DEFER,IFS_AND_BACKOFF
attr interpolationmode none
attr recordingmode vector
attr title "contention state changed"
attr type enum
vector 10 Scenario.node[0].wlan[0].mac.dcf.recoveryProcedure contentionWindowChanged:vector ETV
attr interpolationmode sample-hold
attr recordingmode vector
attr title "contention window"
vector 11 Scenario.node[1].wlan[0].mac.dcf frameSequenceActive:vector ETV
attr autoWarmupFilter false
attr interpolationmode sample-hold
attr recordingmode vector
attr source warmup(count(frameSequenceStarted)-count(frameSequenceFinished))
attr title "frame sequence active"
vector 12 Scenario.node[1].wlan[0].mac.dcf.channelAccess.inProgressFrames queueLength:vector ETV
attr autoWarmupFilter false
attr interpolationmode sample-hold
attr recordingmode vector
attr source "warmup(count(packetEnqueued) - count(packetDequeued))"
attr title "queue length"
vector 13 Scenario.node[1].wlan[0].mac.dcf.channelAccess.contention backoffActive:vector ETV
attr autoWarmupFilter false
attr interpolationmode sample-hold
attr recordingmode vector
attr source warmup(count(backoffStarted)-count(backoffStopped))
attr title "backoff active"
vector 14 Scenario.node[1].udp passedUpPk:vector(count) ETV
attr interpolationmode none
attr recordingmode vector(count)
attr source packetSentToUpper
attr title "packets passed up, count"
vector 15 Scenario.node[1].udp droppedPkWrongPort:vector(count) ETV
attr interpolationmode none
attr recordingmode vector(count)
attr source packetDropReasonIsNoPortFound(packetDropped)
attr title "packets dropped (wrong port), count"
vector 16 Scenario.node[1].udp droppedPkBadChecksum:vector(count) ETV
attr interpolationmode none
attr recordingmode vector(count)
attr source packetDropReasonIsIncorrectlyReceived(packetDropped)
attr title "packets dropped (checksum error), count"
vector 17 Scenario.node[1].wlan[0].radio radioMode:vector ETV
attr interpolationmode sample-hold
attr recordingmode vector
attr source radioModeChanged
attr title "Radio mode"
vector 18 Scenario.node[1].wlan[0].radio radioChannel:vector ETV
attr interpolationmode sample-hold
attr recordingmode vector
attr source radioChannelChanged
attr title "Radio channel"
vector 19 Scenario.node[1].wlan[0].radio receptionState:vector ETV
attr interpolationmode sample-hold
attr recordingmode vector
attr source receptionStateChanged
attr title "Radio reception state"
vector 20 Scenario.node[1].wlan[0].mac.dcf.channelAccess.contention stateChanged:vector ETV
attr enum IDLE,DEFER,IFS_AND_BACKOFF
attr interpolationmode none
attr recordingmode vector
attr title "contention state changed"
attr type enum
vector 21 Scenario.node[1].wlan[0].mac.dcf.recoveryProcedure contentionWindowChanged:vector ETV
attr interpolationmode sample-hold
attr recordingmode vector
attr title "contention window"
vector 22 Scenario.node[2].wlan[0].mac.dcf frameSequenceActive:vector ETV
attr autoWarmupFilter false
attr interpolationmode sample-hold
attr recordingmode vector
attr source warmup(count(frameSequenceStarted)-count(frameSequenceFinished))
attr title "frame sequence active"
vector 23 Scenario.node[2].wlan[0].mac.dcf.channelAccess.inProgressFrames queueLength:vector ETV
attr autoWarmupFilter false
attr interpolationmode sample-hold
attr recordingmode vector
attr source "warmup(count(packetEnqueued) - count(packetDequeued))"
attr title "queue length"
vector 24 Scenario.node[2].wlan[0].mac.dcf.channelAccess.contention backoffActive:vector ETV
attr autoWarmupFilter false
attr interpolationmode sample-hold
attr recordingmode vector
attr source warmup(count(backoffStarted)-count(backoffStopped))
attr title "backoff active"
vector 25 Scenario.node[2].udp passedUpPk:vector(count) ETV
attr interpolationmode none
attr recordingmode vector(count)
attr source packetSentToUpper
attr title "packets passed up, count"
vector 26 Scenario.node[2].udp droppedPkWrongPort:vector(count) ETV
attr interpolationmode none
attr recordingmode vector(count)
attr source packetDropReasonIsNoPortFound(packetDropped)
attr title "packets dropped (wrong port), count"
vector 27 Scenario.node[2].udp droppedPkBadChecksum:vector(count) ETV
attr interpolationmode none
attr recordingmode vector(count)
attr source packetDropReasonIsIncorrectlyReceived(packetDropped)
attr title "packets dropped (checksum error), count"
vector 28 Scenario.node[2].wlan[0].radio radioMode:vector ETV
attr interpolationmode sample-hold
attr recordingmode vector
attr source radioModeChanged
attr title "Radio mode"
vector 29 Scenario.node[2].wlan[0].radio radioChannel:vector ETV
attr interpolationmode sample-hold
attr recordingmode vector
attr source radioChannelChanged
attr title "Radio channel"
vector 30 Scenario.node[2].wlan[0].radio receptionState:vector ETV
attr interpolationmode sample-hold
attr recordingmode vector
attr source receptionStateChanged
attr title "Radio reception state"
vector 31 Scenario.node[2].wlan[0].mac.dcf.channelAccess.contention stateChanged:vector ETV
attr enum IDLE,DEFER,IFS_AND_BACKOFF
attr interpolationmode none
attr recordingmode vector
attr title "contention state changed"
attr type enum
vector 32 Scenario.node[2].wlan[0].mac.dcf.recoveryProcedure contentionWindowChanged:vector ETV
attr interpolationmode sample-hold
attr recordingmode vector
attr title "contention window"
vector 33 Scenario.node[3].wlan[0].mac.dcf frameSequenceActive:vector ETV
attr autoWarmupFilter false
attr interpolationmode sample-hold
attr recordingmode vector
attr source warmup(count(frameSequenceStarted)-count(frameSequenceFinished))
attr title "frame sequence active"
vector 34 Scenario.node[3].wlan[0].mac.dcf.channelAccess.inProgressFrames queueLength:vector ETV
attr autoWarmupFilter false
attr interpolationmode sample-hold
attr recordingmode vector
attr source "warmup(count(packetEnqueued) - count(packetDequeued))"
attr title "queue length"
vector 35 Scenario.node[3].wlan[0].mac.dcf.channelAccess.contention backoffActive:vector ETV
attr autoWarmupFilter false
attr interpolationmode sample-hold
attr recordingmode vector
attr source warmup(count(backoffStarted)-count(backoffStopped))
attr title "backoff active"
vector 36 Scenario.node[3].udp passedUpPk:vector(count) ETV
attr interpolationmode none
attr recordingmode vector(count)
attr source packetSentToUpper
attr title "packets passed up, count"
vector 37 Scenario.node[3].udp droppedPkWrongPort:vector(count) ETV
attr interpolationmode none
attr recordingmode vector(count)
attr source packetDropReasonIsNoPortFound(packetDropped)
attr title "packets dropped (wrong port), count"
vector 38 Scenario.node[3].udp droppedPkBadChecksum:vector(count) ETV
attr interpolationmode none
attr recordingmode vector(count)
attr source packetDropReasonIsIncorrectlyReceived(packetDropped)
attr title "packets dropped (checksum error), count"
vector 39 Scenario.node[3].wlan[0].radio radioMode:vector ETV
attr interpolationmode sample-hold
attr recordingmode vector
attr source radioModeChanged
attr title "Radio mode"
vector 40 Scenario.node[3].wlan[0].radio radioChannel:vector ETV
attr interpolationmode sample-hold
attr recordingmode vector
attr source radioChannelChanged
attr title "Radio channel"
vector 41 Scenario.node[3].wlan[0].radio receptionState:vector ETV
attr interpolationmode sample-hold
attr recordingmode vector
attr source receptionStateChanged
attr title "Radio reception state"
vector 42 Scenario.node[3].wlan[0].mac.dcf.channelAccess.contention stateChanged:vector ETV
attr enum IDLE,DEFER,IFS_AND_BACKOFF
attr interpolationmode none
attr recordingmode vector
attr title "contention state changed"
attr type enum
vector 43 Scenario.node[3].wlan[0].mac.dcf.recoveryProcedure contentionWindowChanged:vector ETV
attr interpolationmode sample-hold
attr recordingmode vector
attr title "contention window"
vector 44 Scenario.node[0].app[0] packetSent:vector(packetBytes) ETV
attr interpolationmode none
attr recordingmode vector(packetBytes)
attr source packetSent
attr title "packets sent, packetBytes"
vector 45 Scenario.node[0].udp packetSent:vector(packetBytes) ETV
attr interpolationmode none
attr recordingmode vector(packetBytes)
attr source packetSent
attr title "packets sent, packetBytes"
vector 46 Scenario.node[0].lo[0].lo rcvdPkFromHl:vector(packetBytes) ETV
attr interpolationmode none
attr recordingmode vector(packetBytes)
attr source packetReceivedFromUpper
attr title "packets received from higher layer, packetBytes"
vector 47 Scenario.node[0].lo[0].lo passedUpPk:vector(packetBytes) ETV
attr interpolationmode none
attr recordingmode vector(packetBytes)
attr source packetSentToUpper
attr title "packets passed to higher layer, packetBytes"
vector 48 Scenario.node[0].wlan[0].mac packetReceivedFromUpper:vector(packetBytes) ETV
attr interpolationmode none
attr recordingmode vector(packetBytes)
attr title "packets received from upper layer, packetBytes"
vector 49 Scenario.node[0].wlan[0].mac.dcf.channelAccess.pendingQueue incomingPacketLengths:vector ETV
attr interpolationmode none
attr recordingmode vector
attr source packetLength(packetPushStarted)
attr title "incoming packet lengths"
attr unit b
vector 50 Scenario.node[0].wlan[0].mac.dcf.channelAccess.pendingQueue incomingDataRate:vector ETV
attr interpolationmode linear
attr recordingmode vector
attr source throughput(packetPushStarted)
attr title "incoming datarate"
attr unit bps
vector 51 Scenario.node[0].wlan[0].mac.dcf.channelAccess.pendingQueue queueLength:vector ETV
attr autoWarmupFilter false
attr interpolationmode sample-hold
attr recordingmode vector
attr source "warmup(atomic(constant0(packetPushEnded) + count(packetPushStarted) - count(packetPulled) - count(packetRemoved) - count(packetDropped)))"
attr title "queue length"
attr unit pk
vector 52 Scenario.node[0].wlan[0].mac.dcf.channelAccess.pendingQueue queueBitLength:vector ETV
attr autoWarmupFilter false
attr interpolationmode sample-hold
attr recordingmode vector
attr source "warmup(atomic(constant0(packetPushEnded) + sum(packetLength(packetPushStarted)) - sum(packetLength(packetPulled)) - sum(packetLength(packetRemoved)) - sum(packetLength(packetDropped))))"
attr title "queue bit length"
attr unit b
vector 53 Scenario.node[0].wlan[0].mac.dcf.channelAccess.contention backoffPeriodGenerated:vector ETV
attr interpolationmode none
attr recordingmode vector
attr title "backoff periods"
vector 54 Scenario.node[0].udp packetReceived:vector(packetBytes) ETV
attr interpolationmode none
attr recordingmode vector(packetBytes)
attr source packetReceived
attr title "packets received, packetBytes"
vector 55 Scenario.node[0].app[0] packetReceived:vector(packetBytes) ETV
attr interpolationmode none
attr recordingmode vector(packetBytes)
attr source packetReceived
attr title "packets received, packetBytes"
vector 56 Scenario.node[0].app[0] throughput:vector ETV
attr recordingmode vector
attr source throughput(packetReceived)
attr title throughput
attr unit bps
vector 57 Scenario.node[0].app[0] rcvdPkLifetime:vector ETV
attr interpolationmode none
attr recordingmode vector
attr source dataAge(packetReceived)
attr title "received packet lifetime"
attr unit s
vector 58 Scenario.node[0].wlan[0].mac.dcf.channelAccess.pendingQueue queueingTime:vector ETV
attr interpolationmode none
attr recordingmode vector
attr source queueingTime(packetPulled)
attr title "queueing times"
attr unit s
vector 59 Scenario.node[0].wlan[0].mac.dcf.channelAccess.pendingQueue outgoingPacketLengths:vector ETV
attr interpolationmode none
attr recordingmode vector
attr source packetLength(packetPulled)
attr title "outgoing packet lengths"
attr unit b
vector 60 Scenario.node[0].wlan[0].mac.dcf.channelAccess.pendingQueue outgoingDataRate:vector ETV
attr interpolationmode linear
attr recordingmode vector
attr source throughput(packetPulled)
attr title "outgoing datarate"
attr unit bps
vector 61 Scenario.node[0].wlan[0].mac.dcf datarateSelected:vector ETV
attr interpolationmode none
attr recordingmode vector
attr title "datarates selected"
vector 62 Scenario.node[0].wlan[0].mac packetSentToLower:vector(packetBytes) ETV
attr interpolationmode none
attr recordingmode vector(packetBytes)
attr title "packets sent to lower layer, packetBytes"
vector 63 Scenario.node[0].wlan[0].radio transmissionState:vector ETV
attr interpolationmode sample-hold
attr recordingmode vector
attr source transmissionStateChanged
attr title "Radio transmission state"
vector 64 Scenario.node[0].wlan[0].mac.dcf packetSentToPeer:vector(packetBytes) ETV
attr interpolationmode none
attr recordingmode vector(packetBytes)
attr title "packets sent, packetBytes"
vector 65 Scenario.node[0].wlan[0].mac.dcf packetSentToPeerMulticast:vector(packetBytes) ETV
attr interpolationmode none
attr recordingmode vector(packetBytes)
attr source ieee80211Multicast(packetSentToPeer)
attr title "packets sent: multicast, packetBytes"
vector 66 Scenario.node[0].wlan[0].mac.dcf packetSentToPeerWithoutRetry:vector(packetBytes) ETV
attr interpolationmode none
attr recordingmode vector(packetBytes)
attr source ieee80211NotRetry(packetSentToPeer)
attr title "packets sent: without retry, packetBytes"
vector 67 Scenario.node[0].wlan[0].mac.dcf.channelAccess.inProgressFrames queueingTime:vector ETV
attr interpolationmode none
attr recordingmode vector
attr source queueingTime(packetDequeued)
attr title "queueing times"
vector 68 Scenario.node[1].wlan[0].mac packetReceivedFromLower:vector(packetBytes) ETV
attr interpolationmode none
attr recordingmode vector(packetBytes)
attr title "packets received from lower layer, packetBytes"
vector 69 Scenario.node[1].wlan[0].mac.dcf packetReceivedFromPeer:vector(packetBytes) ETV
attr interpolationmode none
attr recordingmode vector(packetBytes)
attr title "packets received, packetBytes"
vector 70 Scenario.node[1].wlan[0].mac.dcf packetReceivedFromPeerMulticast:vector(packetBytes) ETV
attr interpolationmode none
attr recordingmode vector(packetBytes)
attr source ieee80211Multicast(packetReceivedFromPeer)
attr title "packets received: multicast, packetBytes"
vector 71 Scenario.node[1].wlan[0].mac.dcf packetReceivedFromPeerWithoutRetry:vector(packetBytes) ETV
attr interpolationmode none
attr recordingmode vector(packetBytes)
attr source ieee80211NotRetry(packetReceivedFromPeer)
attr title "packets received: without retry, packetBytes"
vector 72 Scenario.node[1].wlan[0].mac packetSentToUpper:vector(packetBytes) ETV
attr interpolationmode none
attr recordingmode vector(packetBytes)
attr title "packets sent to upper layer, packetBytes"
vector 73 Scenario.node[1].udp packetReceived:vector(packetBytes) ETV
attr interpolationmode none
attr recordingmode vector(packetBytes)
attr source packetReceived
attr title "packets received, packetBytes"
vector 74 Scenario.node[1].app[0] packetReceived:vector(packetBytes) ETV
attr interpolationmode none
attr recordingmode vector(packetBytes)
attr source packetReceived
attr title "packets received, packetBytes"
vector 75 Scenario.node[1].app[0] throughput:vector ETV
attr recordingmode vector
attr source throughput(packetReceived)
attr title throughput
attr unit bps
vector 76 Scenario.node[1].app[0] rcvdPkLifetime:vector ETV
attr interpolationmode none
attr recordingmode vector
attr source dataAge(packetReceived)
attr title "received packet lifetime"
attr unit s
<<<<<<< HEAD
vector 77 Scenario.node[1].app[0] packetSent:vector(packetBytes) ETV
attr interpolationmode none
attr recordingmode vector(packetBytes)
attr source packetSent
attr title "packets sent, packetBytes"
vector 78 Scenario.node[1].udp packetSent:vector(packetBytes) ETV
attr interpolationmode none
attr recordingmode vector(packetBytes)
attr source packetSent
attr title "packets sent, packetBytes"
vector 79 Scenario.node[1].lo[0].lo rcvdPkFromHl:vector(packetBytes) ETV
attr interpolationmode none
attr recordingmode vector(packetBytes)
attr source packetReceivedFromUpper
attr title "packets received from higher layer, packetBytes"
vector 80 Scenario.node[1].lo[0].lo passedUpPk:vector(packetBytes) ETV
attr interpolationmode none
attr recordingmode vector(packetBytes)
attr source packetSentToUpper
attr title "packets passed to higher layer, packetBytes"
vector 81 Scenario.node[1].wlan[0].mac packetReceivedFromUpper:vector(packetBytes) ETV
attr interpolationmode none
attr recordingmode vector(packetBytes)
attr title "packets received from upper layer, packetBytes"
vector 82 Scenario.node[1].wlan[0].mac.dcf.channelAccess.pendingQueue incomingPacketLengths:vector ETV
attr interpolationmode none
attr recordingmode vector
attr source packetLength(packetPushStarted)
attr title "incoming packet lengths"
attr unit b
vector 83 Scenario.node[1].wlan[0].mac.dcf.channelAccess.pendingQueue incomingDataRate:vector ETV
attr interpolationmode linear
attr recordingmode vector
attr source throughput(packetPushStarted)
attr title "incoming datarate"
attr unit bps
vector 84 Scenario.node[1].wlan[0].mac.dcf.channelAccess.pendingQueue queueLength:vector ETV
attr autoWarmupFilter false
attr interpolationmode sample-hold
attr recordingmode vector
attr source "warmup(atomic(constant0(packetPushEnded) + count(packetPushStarted) - count(packetPulled) - count(packetRemoved) - count(packetDropped)))"
attr title "queue length"
attr unit pk
vector 85 Scenario.node[1].wlan[0].mac.dcf.channelAccess.pendingQueue queueBitLength:vector ETV
attr autoWarmupFilter false
attr interpolationmode sample-hold
attr recordingmode vector
attr source "warmup(atomic(constant0(packetPushEnded) + sum(packetLength(packetPushStarted)) - sum(packetLength(packetPulled)) - sum(packetLength(packetRemoved)) - sum(packetLength(packetDropped))))"
attr title "queue bit length"
attr unit b
vector 86 Scenario.node[1].wlan[0].mac.dcf.channelAccess.contention backoffPeriodGenerated:vector ETV
attr interpolationmode none
attr recordingmode vector
attr title "backoff periods"
0	22481 49 2 233 0.1 20.000152 4 0 1 1 1
1	22530 49 2 233 0.1 20.000152 4 0 1 1 1
2	22579 53 2 265 0.1 21 5 0 1 2 2
3	22632 687 2 1240 0.1 21 57 0 56 1596 60116
4	23319 10 2 2 0.1 0.1 1 0 0 0 0
5	23329 10 2 2 0.1 0.1 1 0 0 0 0
6	23339 59 2 234 0.1 20.000152 5 0 3 7 17
7	23398 10 2 2 0.1 0.1 1 3 3 3 9
8	23408 39 2 234 0.1 20.000152 3 0 1 2 2
9	23447 144 2 265 0.1 21 12 0 2 6 12
10	23591 12 2 2 0.1 0.1 1 15 15 15 225
11	23603 24 55 55 5.1 5.1 2 0 0 0 0
12	23627 24 55 55 5.1 5.1 2 0 0 0 0
13	23651 36 55 267 5.1 21 3 0 1 1 1
14	23687 758 55 1241 5.1 21 57 0 56 1596 60116
15	24445 12 55 55 5.1 5.1 1 0 0 0 0
16	24457 12 55 55 5.1 5.1 1 0 0 0 0
17	24469 36 55 55 5.1 5.1 3 0 2 2 4
18	24505 12 55 55 5.1 5.1 1 3 3 3 9
19	24517 62 55 235 5.1 20.000152222718 3 1 3 5 11
20	24579 148 55 267 5.1 21 8 0 2 2 4
21	24727 13 55 55 5.1 5.1 1 15 15 15 225
22	24740 28 108 108 10.1 10.1 2 0 0 0 0
23	24768 28 108 108 10.1 10.1 2 0 0 0 0
24	24796 28 108 108 10.1 10.1 2 0 0 0 0
25	24824 14 108 108 10.1 10.1 1 0 0 0 0
26	24838 14 108 108 10.1 10.1 1 0 0 0 0
27	24852 14 108 108 10.1 10.1 1 0 0 0 0
28	24866 42 108 108 10.1 10.1 3 0 2 2 4
29	24908 14 108 108 10.1 10.1 1 3 3 3 9
30	24922 14 108 108 10.1 10.1 1 1 1 1 1
31	24936 28 108 108 10.1 10.1 2 0 0 0 0
32	24964 15 108 108 10.1 10.1 1 15 15 15 225
33	24979 28 161 161 15.1 15.1 2 0 0 0 0
34	25007 28 161 161 15.1 15.1 2 0 0 0 0
35	25035 28 161 161 15.1 15.1 2 0 0 0 0
36	25063 14 161 161 15.1 15.1 1 0 0 0 0
37	25077 14 161 161 15.1 15.1 1 0 0 0 0
38	25091 14 161 161 15.1 15.1 1 0 0 0 0
39	25105 42 161 161 15.1 15.1 3 0 2 2 4
40	25147 14 161 161 15.1 15.1 1 3 3 3 9
41	25161 14 161 161 15.1 15.1 1 1 1 1 1
42	25175 28 161 161 15.1 15.1 2 0 0 0 0
43	25203 15 161 161 15.1 15.1 1 15 15 15 225
44	25218 868 213 1244 20 21 57 100 1200 67300 80650000
45	26086 868 218 1246 20 21 57 108 1208 67756 81730448
46	26954 868 220 1250 20 21 57 128 1228 68896 84463488
47	27822 868 220 1250 20 21 57 128 1228 68896 84463488
48	28690 853 223 1237 20 21 56 130 1230 67780 83226400
49	29543 909 223 1237 20 21 56 1264 10064 554784 5572222976
50	30452 2790 223 265 0.2 21 209 0 12640 12640 159769600
51	33242 744 223 1237 20 21 57 0 55 1541 56981
52	33986 967 223 1237 20 21 57 0 553520 15499824 5771169387776
53	34953 24 223 265 20 21 2 4 7 11 65
54	34977 853 224 1240 20 21 56 108 1208 66548 80271184
55	35830 853 225 1242 20 21 56 100 1200 66100 79210000
56	36683 2789 225 270 0.2 21 209 0 8000 8000 64000000
57	39472 686 225 1242 20 21 56 0 0 0 0
58	40158 12 227 227 20 20 1 0 0 0 0
59	40170 15 227 227 20 20 1 1264 1264 1264 1597696
60	40185 2648 227 227 0.2 20 199 0 0 0 0
61	42833 19 227 227 20 20 1 12000000 12000000 12000000 1.44e+14
62	42852 14 227 227 20 20 1 158 158 158 24964
63	42866 62 228 234 20 20.000152 4 0 2 4 6
64	42928 21 233 233 20.000152 20.000152 1 158 158 158 24964
65	42949 21 233 233 20.000152 20.000152 1 158 158 158 24964
66	42970 21 233 233 20.000152 20.000152 1 158 158 158 24964
67	42991 26 233 233 20.000152 20.000152 1 0.000152 0.000152 0.000152 2.3104e-08
68	43017 27 236 236 20.000152222718 20.000152222718 1 158 158 158 24964
69	43044 27 236 236 20.000152222718 20.000152222718 1 158 158 158 24964
70	43071 27 236 236 20.000152222718 20.000152222718 1 158 158 158 24964
71	43098 27 236 236 20.000152222718 20.000152222718 1 158 158 158 24964
72	43125 27 236 236 20.000152222718 20.000152222718 1 130 130 130 16900
73	43152 866 239 1241 20.000152222718 21 56 108 1208 66548 80271184
74	44018 866 240 1243 20.000152222718 21 56 100 1200 66100 79210000
75	44884 2149 240 271 5.2 21 159 0 8000 8000 64000000
76	47033 712 240 1243 20.000152222718 21 56 0 0.000152222718 0.000152222718 2.3171755875308e-08
77	47745 854 254 1245 21 21 56 1200 1200 67200 80640000
78	48599 854 257 1247 21 21 56 1208 1208 67648 81718784
79	49453 839 262 1234 21 21 55 1228 1228 67540 82939120
80	50292 839 262 1234 21 21 55 1228 1228 67540 82939120
81	51131 839 267 1239 21 21 55 1230 1230 67650 83209500
82	51970 894 267 1239 21 21 55 10064 10064 553520 5570625280
83	52864 2146 267 267 5.2 21 159 0 0 0 0
84	55010 720 267 1239 21 21 55 1 55 1540 56980
85	55730 940 267 1239 21 21 55 10064 553520 15498560 5771167790080
86	56670 12 267 267 21 21 1 6 6 6 36
vector 87 Scenario.node[0].wlan[0].mac.dcf.channelAccess.pendingQueue droppedPacketLengthsQueueOverflow:vector ETV
attr interpolationmode none
attr recordingmode vector
attr source packetLength(packetDropReasonIsQueueOverflow(packetDropped))
attr title "dropped packet lengths: queue overflow"
attr unit b
vector 88 Scenario.node[0].wlan[0].mac.dcf packetDrop:vector(packetBytes) ETV
attr interpolationmode none
attr recordingmode vector(packetBytes)
attr source packetDropped
attr title "packet drops, packetBytes"
vector 89 Scenario.node[0].wlan[0].mac.dcf packetDropQueueOverflow:vector(packetBytes) ETV
attr interpolationmode none
attr recordingmode vector(packetBytes)
attr source packetDropReasonIsQueueOverflow(packetDropped)
attr title "packet drops: queue overflow, packetBytes"
vector 90 Scenario.node[0].wlan[0].mac packetDrop:vector(packetBytes) ETV
attr interpolationmode none
attr recordingmode vector(packetBytes)
attr source packetDropped
attr title "packet drops, packetBytes"
vector 91 Scenario.node[0].wlan[0].mac packetDropQueueOverflow:vector(packetBytes) ETV
attr interpolationmode none
attr recordingmode vector(packetBytes)
attr source packetDropReasonIsQueueOverflow(packetDropped)
attr title "packet drops: queue overflow, packetBytes"
vector 92 Scenario.node[1].wlan[0].mac.dcf.channelAccess.pendingQueue droppedPacketLengthsQueueOverflow:vector ETV
attr interpolationmode none
attr recordingmode vector
attr source packetLength(packetDropReasonIsQueueOverflow(packetDropped))
attr title "dropped packet lengths: queue overflow"
attr unit b
vector 93 Scenario.node[1].wlan[0].mac.dcf packetDrop:vector(packetBytes) ETV
attr interpolationmode none
attr recordingmode vector(packetBytes)
attr source packetDropped
attr title "packet drops, packetBytes"
vector 94 Scenario.node[1].wlan[0].mac.dcf packetDropQueueOverflow:vector(packetBytes) ETV
attr interpolationmode none
attr recordingmode vector(packetBytes)
attr source packetDropReasonIsQueueOverflow(packetDropped)
attr title "packet drops: queue overflow, packetBytes"
vector 95 Scenario.node[1].wlan[0].mac packetDrop:vector(packetBytes) ETV
attr interpolationmode none
attr recordingmode vector(packetBytes)
attr source packetDropped
attr title "packet drops, packetBytes"
vector 96 Scenario.node[1].wlan[0].mac packetDropQueueOverflow:vector(packetBytes) ETV
attr interpolationmode none
attr recordingmode vector(packetBytes)
attr source packetDropReasonIsQueueOverflow(packetDropped)
attr title "packet drops: queue overflow, packetBytes"
3	59206 79568 1258 92410 21 21 5065 57 5121 13113285 44778515245
14	138774 84633 1259 92411 21 21 5065 57 5121 13113285 44778515245
44	223407 85619 1262 92414 21 21 5065 1200 1200 6078000 7293600000
45	309026 85619 1264 92416 21 21 5065 1208 1208 6118520 7391172160
46	394645 85602 1268 92402 21 21 5064 1228 1228 6218592 7636430976
47	480247 85602 1268 92402 21 21 5064 1228 1228 6218592 7636430976
48	565849 85619 1255 92407 21 21 5065 1230 1230 6229950 7662838500
49	651468 90684 1255 92407 21 21 5065 10064 10064 50974160 513003946240
50	742152 709 2065 92065 21 21 51 0 0 0 0
51	742861 80510 1255 92407 21 21 5065 56 100 505510 50481370
52	823371 100770 1255 92407 21 21 5065 563584 1006400 5087452640 5.1129599252915e+15
54	924141 85619 1258 92410 21 21 5065 1208 1208 6118520 7391172160
55	1009760 85619 1260 92412 21 21 5065 1200 1200 6078000 7293600000
56	1095379 709 2070 92070 21 21 51 0 0 0 0
57	1096088 70424 1260 92412 21 21 5065 0 0 0 0
73	1166512 85619 1259 92411 21 21 5065 1208 1208 6118520 7391172160
74	1252131 85619 1261 92413 21 21 5065 1200 1200 6078000 7293600000
75	1337750 709 2071 92071 21 21 51 0 0 0 0
76	1338459 70424 1261 92413 21 21 5065 0 0 0 0
77	1408883 85619 1263 92415 21 21 5065 1200 1200 6078000 7293600000
78	1494502 85602 1265 92399 21 21 5064 1208 1208 6117312 7389712896
79	1580104 85619 1252 92404 21 21 5065 1228 1228 6219820 7637938960
80	1665723 85619 1252 92404 21 21 5065 1228 1228 6219820 7637938960
81	1751342 85619 1257 92409 21 21 5065 1230 1230 6229950 7662838500
82	1836961 90684 1257 92409 21 21 5065 10064 10064 50974160 513003946240
83	1927645 709 2067 92067 21 21 51 0 0 0 0
84	1928354 80510 1257 92409 21 21 5065 56 100 505510 50481370
85	2008864 100770 1257 92409 21 21 5065 563584 1006400 5087452640 5.1129599252915e+15
87	2109634 89919 2065 92407 21 21 5020 10064 10064 50521280 508446161920
88	2199553 84899 2065 92407 21 21 5020 1258 1258 6315160 7944471280
89	2284452 84899 2065 92407 21 21 5020 1258 1258 6315160 7944471280
90	2369351 84899 2065 92407 21 21 5020 1258 1258 6315160 7944471280
91	2454250 84899 2065 92407 21 21 5020 1258 1258 6315160 7944471280
92	2539149 89919 2067 92409 21 21 5020 10064 10064 50521280 508446161920
93	2629068 84899 2067 92409 21 21 5020 1258 1258 6315160 7944471280
94	2713967 84899 2067 92409 21 21 5020 1258 1258 6315160 7944471280
95	2798866 84899 2067 92409 21 21 5020 1258 1258 6315160 7944471280
96	2883765 84899 2067 92409 21 21 5020 1258 1258 6315160 7944471280
vector 97 Scenario.node[1].wlan[0].mac.dcf.channelAccess.pendingQueue outgoingDataRate:vector ETV
attr interpolationmode linear
attr recordingmode vector
attr source throughput(packetPulled)
attr title "outgoing datarate"
attr unit bps
vector 98 Scenario.node[2].wlan[0].mac.dcf.channelAccess.pendingQueue outgoingDataRate:vector ETV
=======
0	19936 49 2 233 0.1 20.000152 4 0 1 1 1
1	19985 49 2 233 0.1 20.000152 4 0 1 1 1
2	20034 42 2 226 0.1 20 4 0 1 1 1
3	20076 21 2 224 0.1 20 2 0 1 1 1
4	20097 10 2 2 0.1 0.1 1 0 0 0 0
5	20107 10 2 2 0.1 0.1 1 0 0 0 0
6	20117 59 2 234 0.1 20.000152 5 0 3 7 17
7	20176 10 2 2 0.1 0.1 1 3 3 3 9
8	20186 39 2 234 0.1 20.000152 3 0 1 2 2
9	20225 122 2 234 0.1 20.000152 10 0 2 4 8
10	20347 12 2 2 0.1 0.1 1 15 15 15 225
11	20359 24 55 55 5.1 5.1 2 0 0 0 0
12	20383 24 55 55 5.1 5.1 2 0 0 0 0
13	20407 24 55 55 5.1 5.1 2 0 0 0 0
14	20431 37 55 239 5.1 20.000152182948 2 0 1 1 1
15	20468 12 55 55 5.1 5.1 1 0 0 0 0
16	20480 12 55 55 5.1 5.1 1 0 0 0 0
17	20492 36 55 55 5.1 5.1 3 0 2 2 4
18	20528 12 55 55 5.1 5.1 1 3 3 3 9
19	20540 62 55 235 5.1 20.000152182948 3 1 3 5 11
20	20602 124 55 235 5.1 20.000152182948 6 0 0 0 0
21	20726 13 55 55 5.1 5.1 1 15 15 15 225
22	20739 28 108 108 10.1 10.1 2 0 0 0 0
23	20767 28 108 108 10.1 10.1 2 0 0 0 0
24	20795 28 108 108 10.1 10.1 2 0 0 0 0
25	20823 14 108 108 10.1 10.1 1 0 0 0 0
26	20837 14 108 108 10.1 10.1 1 0 0 0 0
27	20851 14 108 108 10.1 10.1 1 0 0 0 0
28	20865 42 108 108 10.1 10.1 3 0 2 2 4
29	20907 14 108 108 10.1 10.1 1 3 3 3 9
30	20921 14 108 108 10.1 10.1 1 1 1 1 1
31	20935 28 108 108 10.1 10.1 2 0 0 0 0
32	20963 15 108 108 10.1 10.1 1 15 15 15 225
33	20978 28 161 161 15.1 15.1 2 0 0 0 0
34	21006 28 161 161 15.1 15.1 2 0 0 0 0
35	21034 28 161 161 15.1 15.1 2 0 0 0 0
36	21062 14 161 161 15.1 15.1 1 0 0 0 0
37	21076 14 161 161 15.1 15.1 1 0 0 0 0
38	21090 14 161 161 15.1 15.1 1 0 0 0 0
39	21104 42 161 161 15.1 15.1 3 0 2 2 4
40	21146 14 161 161 15.1 15.1 1 3 3 3 9
41	21160 14 161 161 15.1 15.1 1 1 1 1 1
42	21174 28 161 161 15.1 15.1 2 0 0 0 0
43	21202 15 161 161 15.1 15.1 1 15 15 15 225
44	21217 14 213 213 20 20 1 100 100 100 10000
45	21231 14 218 218 20 20 1 108 108 108 11664
46	21245 14 220 220 20 20 1 128 128 128 16384
47	21259 14 220 220 20 20 1 128 128 128 16384
48	21273 14 223 223 20 20 1 130 130 130 16900
49	21287 15 223 223 20 20 1 1264 1264 1264 1597696
50	21302 2648 223 223 0.2 20 199 0 0 0 0
51	23950 24 223 227 20 20 2 0 1 1 1
52	23974 27 223 227 20 20 2 0 1264 1264 1597696
53	24001 12 223 223 20 20 1 4 4 4 16
54	24013 14 224 224 20 20 1 108 108 108 11664
55	24027 14 225 225 20 20 1 100 100 100 10000
56	24041 2648 225 225 0.2 20 199 0 0 0 0
57	26689 12 225 225 20 20 1 0 0 0 0
58	26701 12 227 227 20 20 1 0 0 0 0
59	26713 15 227 227 20 20 1 1264 1264 1264 1597696
60	26728 2648 227 227 0.2 20 199 0 0 0 0
61	29376 19 227 227 20 20 1 12000000 12000000 12000000 1.44e+14
62	29395 14 227 227 20 20 1 158 158 158 24964
63	29409 62 228 234 20 20.000152 4 0 2 4 6
64	29471 21 233 233 20.000152 20.000152 1 158 158 158 24964
65	29492 21 233 233 20.000152 20.000152 1 158 158 158 24964
66	29513 21 233 233 20.000152 20.000152 1 158 158 158 24964
67	29534 26 233 233 20.000152 20.000152 1 0.000152 0.000152 0.000152 2.3104e-08
68	29560 27 236 236 20.000152182948 20.000152182948 1 158 158 158 24964
69	29587 27 236 236 20.000152182948 20.000152182948 1 158 158 158 24964
70	29614 27 236 236 20.000152182948 20.000152182948 1 158 158 158 24964
71	29641 27 236 236 20.000152182948 20.000152182948 1 158 158 158 24964
72	29668 27 236 236 20.000152182948 20.000152182948 1 130 130 130 16900
73	29695 27 239 239 20.000152182948 20.000152182948 1 108 108 108 11664
74	29722 27 240 240 20.000152182948 20.000152182948 1 100 100 100 10000
75	29749 2008 240 240 5.2 20 149 0 0 0 0
76	31757 38 240 240 20.000152182948 20.000152182948 1 0.000152182948 0.000152182948 0.000152182948 2.3159649661971e-08
vector 77 Scenario.node[1].wlan[0].mac.dcf.channelAccess.pendingQueue outgoingDataRate:vector ETV
attr interpolationmode linear
attr recordingmode vector
attr source throughput(packetPulled)
attr title "outgoing datarate"
attr unit bps
vector 78 Scenario.node[1].wlan[0].mac.dcf.channelAccess.pendingQueue incomingDataRate:vector ETV
attr interpolationmode linear
attr recordingmode vector
attr source throughput(packetPushStarted)
attr title "incoming datarate"
attr unit bps
vector 79 Scenario.node[2].wlan[0].mac.dcf.channelAccess.pendingQueue outgoingDataRate:vector ETV
>>>>>>> cb40c32b5605b182eb28a7bfd6f1ddcc854b381a
attr interpolationmode linear
attr recordingmode vector
attr source throughput(packetPulled)
attr title "outgoing datarate"
attr unit bps
<<<<<<< HEAD
vector 99 Scenario.node[2].wlan[0].mac.dcf.channelAccess.pendingQueue incomingDataRate:vector ETV
=======
vector 80 Scenario.node[2].wlan[0].mac.dcf.channelAccess.pendingQueue incomingDataRate:vector ETV
>>>>>>> cb40c32b5605b182eb28a7bfd6f1ddcc854b381a
attr interpolationmode linear
attr recordingmode vector
attr source throughput(packetPushStarted)
attr title "incoming datarate"
attr unit bps
<<<<<<< HEAD
vector 100 Scenario.node[2].app[0] throughput:vector ETV
=======
vector 81 Scenario.node[2].app[0] throughput:vector ETV
>>>>>>> cb40c32b5605b182eb28a7bfd6f1ddcc854b381a
attr recordingmode vector
attr source throughput(packetReceived)
attr title throughput
attr unit bps
<<<<<<< HEAD
vector 101 Scenario.node[3].wlan[0].mac.dcf.channelAccess.pendingQueue outgoingDataRate:vector ETV
=======
vector 82 Scenario.node[3].wlan[0].mac.dcf.channelAccess.pendingQueue outgoingDataRate:vector ETV
>>>>>>> cb40c32b5605b182eb28a7bfd6f1ddcc854b381a
attr interpolationmode linear
attr recordingmode vector
attr source throughput(packetPulled)
attr title "outgoing datarate"
attr unit bps
<<<<<<< HEAD
vector 102 Scenario.node[3].wlan[0].mac.dcf.channelAccess.pendingQueue incomingDataRate:vector ETV
=======
vector 83 Scenario.node[3].wlan[0].mac.dcf.channelAccess.pendingQueue incomingDataRate:vector ETV
>>>>>>> cb40c32b5605b182eb28a7bfd6f1ddcc854b381a
attr interpolationmode linear
attr recordingmode vector
attr source throughput(packetPushStarted)
attr title "incoming datarate"
attr unit bps
<<<<<<< HEAD
vector 103 Scenario.node[3].app[0] throughput:vector ETV
=======
vector 84 Scenario.node[3].app[0] throughput:vector ETV
>>>>>>> cb40c32b5605b182eb28a7bfd6f1ddcc854b381a
attr recordingmode vector
attr source throughput(packetReceived)
attr title throughput
attr unit bps
<<<<<<< HEAD
60	2970172 162 92416 92416 20.1 21 10 0 12640 12640 159769600
97	2970334 2464 92416 92416 5.2 21 159 0 0 0 0
98	2972798 1722 92416 92416 10.2 21 109 0 0 0 0
99	2974520 1722 92416 92416 10.2 21 109 0 0 0 0
100	2976242 1831 92416 92416 10.2 21 109 0 0 0 0
101	2978073 991 92416 92416 15.2 21 59 0 0 0 0
102	2979064 991 92416 92416 15.2 21 59 0 0 0 0
103	2980055 991 92416 92416 15.2 21 59 0 0 0 0
=======
50	33540 60 247 247 20.1 20.4 4 0 12640 12640 159769600
56	33600 59 247 247 20.1 20.4 4 0 8000 8000 64000000
60	33659 60 247 247 20.1 20.4 4 0 12640 12640 159769600
75	33719 59 247 247 20.1 20.4 4 0 8000 8000 64000000
77	33778 2064 247 247 5.2 20.4 153 0 0 0 0
78	35842 2064 247 247 5.2 20.4 153 0 0 0 0
79	37906 1422 247 247 10.2 20.4 103 0 0 0 0
80	39328 1422 247 247 10.2 20.4 103 0 0 0 0
81	40750 1422 247 247 10.2 20.4 103 0 0 0 0
82	42172 732 247 247 15.2 20.4 53 0 0 0 0
83	42904 732 247 247 15.2 20.4 53 0 0 0 0
84	43636 732 247 247 15.2 20.4 53 0 0 0 0
>>>>>>> cb40c32b5605b182eb28a7bfd6f1ddcc854b381a

